
     RDKit          3D

 49 53  0  0  0  0  0  0  0  0999 V2000
   -2.7429   -1.3609   -0.1260 C   0  0  0  0  0  0  0  0  0  0  0  0
   -1.7717   -0.3552    0.3104 N   0  0  1  0  0  4  0  0  0  0  0  0
   -2.5677    0.7631    0.7845 C   0  0  0  0  0  0  0  0  0  0  0  0
   -3.9630    0.3500    1.1513 C   0  0  0  0  0  0  0  0  0  0  0  0
   -5.0601    0.8361    0.5825 C   0  0  0  0  0  0  0  0  0  0  0  0
   -1.0616   -0.9464    1.3919 C   0  0  0  0  0  0  0  0  0  0  0  0
    0.1880   -0.2815    1.8303 C   0  0  0  0  0  0  0  0  0  0  0  0
    0.9421    0.3517    0.7205 C   0  0  2  0  0  0  0  0  0  0  0  0
    2.1431    1.1050    1.2341 C   0  0  1  0  0  0  0  0  0  0  0  0
    3.0048   -0.0203    1.5070 O   0  0  0  0  0  0  0  0  0  0  0  0
    2.9116   -0.9086    0.4394 C   0  0  0  0  0  0  0  0  0  0  0  0
    3.6519   -1.8692   -0.2168 C   0  0  0  0  0  0  0  0  0  0  0  0
    4.9345   -2.0842    0.3010 O   0  0  0  0  0  0  0  0  0  0  0  0
    3.1214   -2.5479   -1.3074 C   0  0  0  0  0  0  0  0  0  0  0  0
    1.8245   -2.2497   -1.7387 C   0  0  0  0  0  0  0  0  0  0  0  0
    1.0653   -1.3107   -1.1184 C   0  0  0  0  0  0  0  0  0  0  0  0
   -0.3133   -0.9783   -1.5736 C   0  0  0  0  0  0  0  0  0  0  0  0
   -0.9379    0.1079   -0.7684 C   0  0  2  0  0  0  0  0  0  0  0  0
    0.0710    1.0702   -0.2374 C   0  0  1  0  0  0  0  0  0  0  0  0
   -0.4984    2.1509    0.4112 O   0  0  0  0  0  0  0  0  0  0  0  0
    0.9160    1.6874   -1.3548 C   0  0  0  0  0  0  0  0  0  0  0  0
    1.8103    2.7080   -0.6384 C   0  0  0  0  0  0  0  0  0  0  0  0
    2.7940    1.8846    0.1523 C   0  0  0  0  0  0  0  0  0  0  0  0
    4.0042    1.8146   -0.0177 O   0  0  0  0  0  0  0  0  0  0  0  0
    1.6469   -0.6919   -0.0650 C   0  0  0  0  0  0  0  0  0  0  0  0
   -3.4077   -0.9802   -0.9014 H   0  0  0  0  0  0  0  0  0  0  0  0
   -3.3836   -1.5505    0.7869 H   0  0  0  0  0  0  0  0  0  0  0  0
   -2.2826   -2.3476   -0.3223 H   0  0  0  0  0  0  0  0  0  0  0  0
   -2.7070    1.5323   -0.0086 H   0  0  0  0  0  0  0  0  0  0  0  0
   -2.1636    1.2000    1.7408 H   0  0  0  0  0  0  0  0  0  0  0  0
   -4.8167   -0.1177    1.6030 H   0  0  0  0  0  0  0  0  0  0  0  0
   -5.8295    1.3602   -0.0101 H   0  0  0  0  0  0  0  0  0  0  0  0
   -5.1688    1.5681   -0.1969 H   0  0  0  0  0  0  0  0  0  0  0  0
   -1.7690   -0.9271    2.2728 H   0  0  0  0  0  0  0  0  0  0  0  0
   -0.9164   -2.0455    1.2133 H   0  0  0  0  0  0  0  0  0  0  0  0
    0.0398    0.4335    2.6637 H   0  0  0  0  0  0  0  0  0  0  0  0
    0.8634   -1.0718    2.2652 H   0  0  0  0  0  0  0  0  0  0  0  0
    1.9530    1.6800    2.1579 H   0  0  0  0  0  0  0  0  0  0  0  0
    5.6369   -2.4160   -0.3583 H   0  0  0  0  0  0  0  0  0  0  0  0
    3.7655   -3.2986   -1.7811 H   0  0  0  0  0  0  0  0  0  0  0  0
    1.4566   -2.8107   -2.5984 H   0  0  0  0  0  0  0  0  0  0  0  0
   -0.9156   -1.8658   -1.7435 H   0  0  0  0  0  0  0  0  0  0  0  0
   -0.1638   -0.5433   -2.6082 H   0  0  0  0  0  0  0  0  0  0  0  0
   -1.6237    0.7038   -1.4329 H   0  0  0  0  0  0  0  0  0  0  0  0
   -0.1050    2.3631    1.2807 H   0  0  0  0  0  0  0  0  0  0  0  0
    0.2717    2.2628   -2.0332 H   0  0  0  0  0  0  0  0  0  0  0  0
    1.5983    0.9847   -1.8281 H   0  0  0  0  0  0  0  0  0  0  0  0
    1.1970    3.3267    0.0384 H   0  0  0  0  0  0  0  0  0  0  0  0
    2.3578    3.3352   -1.3737 H   0  0  0  0  0  0  0  0  0  0  0  0
  2  1  1  6
  2  3  1  0
  3  4  1  0
  4  5  2  0
  2  6  1  0
  6  7  1  0
  8  7  1  1
  8  9  1  0
  9 10  1  0
 10 11  1  0
 11 12  2  0
 12 13  1  0
 12 14  1  0
 14 15  2  0
 15 16  1  0
 16 17  1  0
 17 18  1  0
 18 19  1  0
 19 20  1  1
 19 21  1  0
 21 22  1  0
 22 23  1  0
 23 24  2  0
 16 25  2  0
 18  2  1  0
 19  8  1  0
 25  8  1  0
 23  9  1  0
 25 11  1  0
  1 26  1  0
  1 27  1  0
  1 28  1  0
  3 29  1  0
  3 30  1  0
  4 31  1  0
  5 32  1  0
  5 33  1  0
  6 34  1  0
  6 35  1  0
  7 36  1  0
  7 37  1  0
  9 38  1  1
 13 39  1  0
 14 40  1  0
 15 41  1  0
 17 42  1  0
 17 43  1  0
 18 44  1  6
 20 45  1  0
 21 46  1  0
 21 47  1  0
 22 48  1  0
 22 49  1  0
M  CHG  1   2   1
M  END
$$$$
