
     RDKit          3D

 43 45  0  0  0  0  0  0  0  0999 V2000
    6.7781    1.7928    2.0516 C   0  0  0  0  0  0  0  0  0  0  0  0
    6.1919    0.7812    1.2060 N   0  0  0  0  0  0  0  0  0  0  0  0
    4.8893    0.9003    0.6605 C   0  0  0  0  0  0  0  0  0  0  0  0
    4.2210    1.9359    0.9273 O   0  0  0  0  0  0  0  0  0  0  0  0
    4.3305   -0.1515   -0.1903 C   0  0  0  0  0  0  0  0  0  0  0  0
    5.1570   -1.0399   -0.8505 C   0  0  0  0  0  0  0  0  0  0  0  0
    4.5343   -1.9664   -1.5881 N   0  0  0  0  0  0  0  0  0  0  0  0
    3.2227   -2.0940   -1.7306 C   0  0  0  0  0  0  0  0  0  0  0  0
    2.7647   -3.1521   -2.5660 N   0  0  0  0  0  0  0  0  0  0  0  0
    2.3315   -1.2124   -1.0782 C   0  0  0  0  0  0  0  0  0  0  0  0
    0.9876   -1.2283   -1.1337 C   0  0  0  0  0  0  0  0  0  0  0  0
    0.2993   -0.2852   -0.4256 C   0  0  0  0  0  0  0  0  0  0  0  0
   -1.1279    0.0061   -0.2473 C   0  0  0  0  0  0  0  0  0  0  0  0
   -1.5393    1.0848    0.4916 C   0  0  0  0  0  0  0  0  0  0  0  0
   -2.8673    1.3490    0.6849 C   0  0  0  0  0  0  0  0  0  0  0  0
   -3.8406    0.5251    0.1340 C   0  0  0  0  0  0  0  0  0  0  0  0
   -5.2807    0.7825    0.3087 C   0  0  0  0  0  0  0  0  0  0  0  0
   -5.7932    0.2763    1.6541 C   0  0  0  0  0  0  0  0  0  0  0  0
   -6.0564    0.0112   -0.7747 C   0  0  0  0  0  0  0  0  0  0  0  0
   -5.5415    2.1989    0.1069 C   0  0  0  0  0  0  0  0  0  0  0  0
   -5.7637    3.3228   -0.0508 N   0  0  0  0  0  0  0  0  0  0  0  0
   -3.4358   -0.5568   -0.6074 C   0  0  0  0  0  0  0  0  0  0  0  0
   -2.0954   -0.7979   -0.7855 C   0  0  0  0  0  0  0  0  0  0  0  0
    1.6446    0.6677    0.3551 S   0  0  0  0  0  0  0  0  0  0  0  0
    2.9361   -0.2609   -0.3219 C   0  0  0  0  0  0  0  0  0  0  0  0
    6.2241    2.7318    2.0590 H   0  0  0  0  0  0  0  0  0  0  0  0
    7.7918    2.0193    1.6293 H   0  0  0  0  0  0  0  0  0  0  0  0
    6.9565    1.4269    3.0766 H   0  0  0  0  0  0  0  0  0  0  0  0
    6.7825   -0.0630    1.0047 H   0  0  0  0  0  0  0  0  0  0  0  0
    6.2086   -0.9373   -0.7345 H   0  0  0  0  0  0  0  0  0  0  0  0
    2.2890   -2.9876   -3.4660 H   0  0  0  0  0  0  0  0  0  0  0  0
    2.9219   -4.1521   -2.2407 H   0  0  0  0  0  0  0  0  0  0  0  0
    0.3748   -1.9681   -1.7241 H   0  0  0  0  0  0  0  0  0  0  0  0
   -0.7681    1.7122    0.9152 H   0  0  0  0  0  0  0  0  0  0  0  0
   -3.2140    2.2101    1.2792 H   0  0  0  0  0  0  0  0  0  0  0  0
   -5.8783    1.1583    2.3382 H   0  0  0  0  0  0  0  0  0  0  0  0
   -6.7820   -0.2178    1.5185 H   0  0  0  0  0  0  0  0  0  0  0  0
   -5.0980   -0.4968    2.0339 H   0  0  0  0  0  0  0  0  0  0  0  0
   -7.1122    0.4123   -0.7050 H   0  0  0  0  0  0  0  0  0  0  0  0
   -6.1021   -1.0613   -0.5030 H   0  0  0  0  0  0  0  0  0  0  0  0
   -5.6462    0.2170   -1.7604 H   0  0  0  0  0  0  0  0  0  0  0  0
   -4.1628   -1.2368   -1.0654 H   0  0  0  0  0  0  0  0  0  0  0  0
   -1.7322   -1.6560   -1.3739 H   0  0  0  0  0  0  0  0  0  0  0  0
  1  2  1  0
  2  3  1  0
  3  4  2  0
  3  5  1  0
  5  6  2  0
  6  7  1  0
  7  8  2  0
  8  9  1  0
  8 10  1  0
 10 11  1  0
 11 12  2  0
 12 13  1  0
 13 14  2  0
 14 15  1  0
 15 16  2  0
 16 17  1  0
 17 18  1  0
 17 19  1  0
 17 20  1  0
 20 21  3  0
 16 22  1  0
 22 23  2  0
 12 24  1  0
 24 25  1  0
 25  5  1  0
 25 10  2  0
 23 13  1  0
  1 26  1  0
  1 27  1  0
  1 28  1  0
  2 29  1  0
  6 30  1  0
  9 31  1  0
  9 32  1  0
 11 33  1  0
 14 34  1  0
 15 35  1  0
 18 36  1  0
 18 37  1  0
 18 38  1  0
 19 39  1  0
 19 40  1  0
 19 41  1  0
 22 42  1  0
 23 43  1  0
M  END
$$$$
