
     RDKit          3D

 62 66  0  0  0  0  0  0  0  0999 V2000
   -2.0120    4.4971    1.4858 C   0  0  0  0  0  0  0  0  0  0  0  0
   -0.7548    3.6728    1.2298 C   0  0  0  0  0  0  0  0  0  0  0  0
   -1.1890    2.2398    0.9925 C   0  0  0  0  0  0  0  0  0  0  0  0
   -2.0888    2.2228   -0.1917 C   0  0  0  0  0  0  0  0  0  0  0  0
   -2.4918    0.7933   -0.4581 C   0  0  0  0  0  0  0  0  0  0  0  0
   -3.5960    0.2331    0.1095 N   0  0  0  0  0  0  0  0  0  0  0  0
   -3.6925   -1.0229   -0.2366 N   0  0  0  0  0  0  0  0  0  0  0  0
   -4.7245   -1.9459    0.1658 C   0  0  0  0  0  0  0  0  0  0  0  0
   -4.5195   -2.6687    1.3220 C   0  0  0  0  0  0  0  0  0  0  0  0
   -5.4937   -3.5538    1.7158 C   0  0  0  0  0  0  0  0  0  0  0  0
   -6.6493   -3.7288    0.9908 C   0  0  0  0  0  0  0  0  0  0  0  0
   -6.8349   -3.0065   -0.1485 C   0  0  0  0  0  0  0  0  0  0  0  0
   -5.8774   -2.1139   -0.5669 C   0  0  0  0  0  0  0  0  0  0  0  0
   -6.1372   -1.1930   -2.0383 Cl  0  0  0  0  0  0  0  0  0  0  0  0
   -2.6543   -1.3483   -1.0509 C   0  0  0  0  0  0  0  0  0  0  0  0
   -2.4404   -2.6661   -1.6372 C   0  0  0  0  0  0  0  0  0  0  0  0
   -1.4871   -2.9299   -2.3813 O   0  0  0  0  0  0  0  0  0  0  0  0
   -3.3498   -3.6887   -1.3517 O   0  0  0  0  0  0  0  0  0  0  0  0
   -1.8905   -0.1834   -1.1902 C   0  0  0  0  0  0  0  0  0  0  0  0
   -0.6935   -0.0586   -2.0359 C   0  0  0  0  0  0  0  0  0  0  0  0
    0.5946   -0.0058   -1.3365 C   0  0  0  0  0  0  0  0  0  0  0  0
    1.3271    1.1787   -1.2294 C   0  0  0  0  0  0  0  0  0  0  0  0
    2.5269    1.1901   -0.5668 C   0  0  0  0  0  0  0  0  0  0  0  0
    3.0565    0.0532    0.0135 C   0  0  0  0  0  0  0  0  0  0  0  0
    4.3107    0.0252    0.7452 C   0  0  0  0  0  0  0  0  0  0  0  0
    4.2896   -0.2644    2.1191 C   0  0  0  0  0  0  0  0  0  0  0  0
    5.4384   -0.2943    2.8805 C   0  0  0  0  0  0  0  0  0  0  0  0
    6.6621   -0.0337    2.2936 C   0  0  0  0  0  0  0  0  0  0  0  0
    6.7027    0.2508    0.9533 C   0  0  0  0  0  0  0  0  0  0  0  0
    5.5187    0.2796    0.1747 C   0  0  0  0  0  0  0  0  0  0  0  0
    5.6145    0.5542   -1.2398 C   0  0  0  0  0  0  0  0  0  0  0  0
    4.6591    0.5093   -2.1480 N   0  0  0  0  0  0  0  0  0  0  0  0
    5.1585    0.8087   -3.3592 N   0  0  0  0  0  0  0  0  0  0  0  0
    6.4339    1.0357   -3.1662 N   0  0  0  0  0  0  0  0  0  0  0  0
    6.7341    0.8877   -1.8906 N   0  0  0  0  0  0  0  0  0  0  0  0
    2.2933   -1.1018   -0.1195 C   0  0  0  0  0  0  0  0  0  0  0  0
    1.0915   -1.1676   -0.7689 C   0  0  0  0  0  0  0  0  0  0  0  0
   -1.7008    5.4258    1.9987 H   0  0  0  0  0  0  0  0  0  0  0  0
   -2.7179    3.8912    2.0638 H   0  0  0  0  0  0  0  0  0  0  0  0
   -2.4465    4.7836    0.4900 H   0  0  0  0  0  0  0  0  0  0  0  0
   -0.1000    3.6839    2.1000 H   0  0  0  0  0  0  0  0  0  0  0  0
   -0.2831    4.0331    0.3020 H   0  0  0  0  0  0  0  0  0  0  0  0
   -0.3638    1.5609    0.8837 H   0  0  0  0  0  0  0  0  0  0  0  0
   -1.8399    1.9373    1.8722 H   0  0  0  0  0  0  0  0  0  0  0  0
   -1.5080    2.5523   -1.0810 H   0  0  0  0  0  0  0  0  0  0  0  0
   -2.9898    2.8530   -0.0816 H   0  0  0  0  0  0  0  0  0  0  0  0
   -3.6043   -2.5192    1.8826 H   0  0  0  0  0  0  0  0  0  0  0  0
   -5.3295   -4.1190    2.6213 H   0  0  0  0  0  0  0  0  0  0  0  0
   -7.4069   -4.4248    1.3081 H   0  0  0  0  0  0  0  0  0  0  0  0
   -7.7390   -3.1076   -0.7641 H   0  0  0  0  0  0  0  0  0  0  0  0
   -3.3655   -4.5143   -1.9304 H   0  0  0  0  0  0  0  0  0  0  0  0
   -0.7798    0.8817   -2.6535 H   0  0  0  0  0  0  0  0  0  0  0  0
   -0.6486   -0.8634   -2.8047 H   0  0  0  0  0  0  0  0  0  0  0  0
    0.9453    2.0823   -1.6685 H   0  0  0  0  0  0  0  0  0  0  0  0
    3.1140    2.1175   -0.4739 H   0  0  0  0  0  0  0  0  0  0  0  0
    3.3197   -0.4692    2.5750 H   0  0  0  0  0  0  0  0  0  0  0  0
    5.4311   -0.5170    3.9400 H   0  0  0  0  0  0  0  0  0  0  0  0
    7.5939   -0.0500    2.8733 H   0  0  0  0  0  0  0  0  0  0  0  0
    7.6526    0.4587    0.4647 H   0  0  0  0  0  0  0  0  0  0  0  0
    7.7046    1.0212   -1.4983 H   0  0  0  0  0  0  0  0  0  0  0  0
    2.6621   -2.0312    0.3186 H   0  0  0  0  0  0  0  0  0  0  0  0
    0.5651   -2.1225   -0.8177 H   0  0  0  0  0  0  0  0  0  0  0  0
  1  2  1  0
  2  3  1  0
  3  4  1  0
  4  5  1  0
  5  6  2  0
  6  7  1  0
  7  8  1  0
  8  9  2  0
  9 10  1  0
 10 11  2  0
 11 12  1  0
 12 13  2  0
 13 14  1  0
  7 15  1  0
 15 16  1  0
 16 17  2  0
 16 18  1  0
 15 19  2  0
 19 20  1  0
 20 21  1  0
 21 22  2  0
 22 23  1  0
 23 24  2  0
 24 25  1  0
 25 26  2  0
 26 27  1  0
 27 28  2  0
 28 29  1  0
 29 30  2  0
 30 31  1  0
 31 32  2  0
 32 33  1  0
 33 34  2  0
 34 35  1  0
 24 36  1  0
 36 37  2  0
 19  5  1  0
 37 21  1  0
 13  8  1  0
 30 25  1  0
 35 31  1  0
  1 38  1  0
  1 39  1  0
  1 40  1  0
  2 41  1  0
  2 42  1  0
  3 43  1  0
  3 44  1  0
  4 45  1  0
  4 46  1  0
  9 47  1  0
 10 48  1  0
 11 49  1  0
 12 50  1  0
 18 51  1  0
 20 52  1  0
 20 53  1  0
 22 54  1  0
 23 55  1  0
 26 56  1  0
 27 57  1  0
 28 58  1  0
 29 59  1  0
 35 60  1  0
 36 61  1  0
 37 62  1  0
M  END
$$$$
