
     RDKit          3D

 68 71  0  0  0  0  0  0  0  0999 V2000
    0.3395    0.3469   -3.2748 C   0  0  0  0  0  0  0  0  0  0  0  0
    0.2842   -0.5825   -2.0890 C   0  0  1  0  0  0  0  0  0  0  0  0
    1.5624   -0.6410   -1.3545 C   0  0  0  0  0  0  0  0  0  0  0  0
    1.6805   -1.3551   -0.1828 C   0  0  0  0  0  0  0  0  0  0  0  0
    2.8906   -1.4154    0.5203 C   0  0  0  0  0  0  0  0  0  0  0  0
    3.9982   -0.7720    0.0756 C   0  0  0  0  0  0  0  0  0  0  0  0
    5.2976   -0.7666    0.7212 C   0  0  0  0  0  0  0  0  0  0  0  0
    5.4865   -1.4559    1.8897 C   0  0  0  0  0  0  0  0  0  0  0  0
    6.7348   -1.4660    2.5336 C   0  0  0  0  0  0  0  0  0  0  0  0
    7.7640   -0.7736    1.9732 C   0  0  0  0  0  0  0  0  0  0  0  0
    8.9168   -0.7542    2.5231 O   0  0  0  0  0  0  0  0  0  0  0  0
    7.5381   -0.1113    0.8280 N   0  0  0  0  0  0  0  0  0  0  0  0
    8.6376    0.6206    0.2416 C   0  0  0  0  0  0  0  0  0  0  0  0
    8.5784    2.0341    0.8348 C   0  0  0  0  0  0  0  0  0  0  0  0
    7.3829    2.6397    0.5319 F   0  0  0  0  0  0  0  0  0  0  0  0
    8.6317    1.9357    2.2218 F   0  0  0  0  0  0  0  0  0  0  0  0
    9.5923    2.8269    0.3382 F   0  0  0  0  0  0  0  0  0  0  0  0
    6.3602   -0.1061    0.2272 N   0  0  0  0  0  0  0  0  0  0  0  0
    3.8902   -0.0400   -1.1189 C   0  0  0  0  0  0  0  0  0  0  0  0
    2.7015    0.0045   -1.7865 C   0  0  0  0  0  0  0  0  0  0  0  0
   -0.8450   -0.3482   -1.2398 N   0  0  0  0  0  0  0  0  0  0  0  0
   -1.9097   -1.3438   -1.0651 C   0  0  0  0  0  0  0  0  0  0  0  0
   -3.2224   -0.5421   -1.0420 C   0  0  0  0  0  0  0  0  0  0  0  0
   -3.3406    0.2752    0.2014 C   0  0  2  0  0  0  0  0  0  0  0  0
   -3.5868   -0.5110    1.4525 C   0  0  0  0  0  0  0  0  0  0  0  0
   -4.7991   -1.3300    1.5460 C   0  0  0  0  0  0  0  0  0  0  0  0
   -6.1079   -0.5767    1.4188 C   0  0  0  0  0  0  0  0  0  0  0  0
   -4.8902   -2.5417    0.6792 C   0  0  0  0  0  0  0  0  0  0  0  0
   -4.8315   -1.8209    2.8869 O   0  0  0  0  0  0  0  0  0  0  0  0
   -4.2565    1.4194    0.0581 C   0  0  0  0  0  0  0  0  0  0  0  0
   -4.9798    1.6329   -1.0765 C   0  0  0  0  0  0  0  0  0  0  0  0
   -5.8301    2.7255   -1.1953 C   0  0  0  0  0  0  0  0  0  0  0  0
   -5.9474    3.6142   -0.1455 C   0  0  0  0  0  0  0  0  0  0  0  0
   -5.2236    3.4069    0.9996 C   0  0  0  0  0  0  0  0  0  0  0  0
   -4.3928    2.3208    1.0884 C   0  0  0  0  0  0  0  0  0  0  0  0
   -2.0428    0.8750    0.4154 O   0  0  0  0  0  0  0  0  0  0  0  0
   -1.0327    0.8568   -0.5001 C   0  0  0  0  0  0  0  0  0  0  0  0
   -0.2838    1.8396   -0.7064 O   0  0  0  0  0  0  0  0  0  0  0  0
   -0.6415    0.3227   -3.7648 H   0  0  0  0  0  0  0  0  0  0  0  0
    1.0560   -0.1294   -4.0066 H   0  0  0  0  0  0  0  0  0  0  0  0
    0.7383    1.3326   -3.0550 H   0  0  0  0  0  0  0  0  0  0  0  0
    0.1457   -1.6154   -2.5299 H   0  0  0  0  0  0  0  0  0  0  0  0
    0.8599   -1.9029    0.2575 H   0  0  0  0  0  0  0  0  0  0  0  0
    2.9400   -1.9858    1.4335 H   0  0  0  0  0  0  0  0  0  0  0  0
    4.7023   -2.0107    2.3591 H   0  0  0  0  0  0  0  0  0  0  0  0
    6.8996   -2.0047    3.4555 H   0  0  0  0  0  0  0  0  0  0  0  0
    9.6235    0.1581    0.4426 H   0  0  0  0  0  0  0  0  0  0  0  0
    8.4620    0.7357   -0.8543 H   0  0  0  0  0  0  0  0  0  0  0  0
    4.7478    0.4895   -1.5121 H   0  0  0  0  0  0  0  0  0  0  0  0
    2.6193    0.5687   -2.7068 H   0  0  0  0  0  0  0  0  0  0  0  0
   -1.8043   -1.8786   -0.1200 H   0  0  0  0  0  0  0  0  0  0  0  0
   -1.9771   -1.9906   -1.9600 H   0  0  0  0  0  0  0  0  0  0  0  0
   -4.0887   -1.1254   -1.3301 H   0  0  0  0  0  0  0  0  0  0  0  0
   -3.0623    0.2040   -1.8812 H   0  0  0  0  0  0  0  0  0  0  0  0
   -3.5150    0.1905    2.3061 H   0  0  0  0  0  0  0  0  0  0  0  0
   -2.7017   -1.1947    1.5765 H   0  0  0  0  0  0  0  0  0  0  0  0
   -6.8836   -1.2995    1.8204 H   0  0  0  0  0  0  0  0  0  0  0  0
   -6.4183   -0.3970    0.3868 H   0  0  0  0  0  0  0  0  0  0  0  0
   -6.1717    0.2839    2.0998 H   0  0  0  0  0  0  0  0  0  0  0  0
   -3.9216   -2.8962    0.2805 H   0  0  0  0  0  0  0  0  0  0  0  0
   -5.2830   -3.4408    1.2507 H   0  0  0  0  0  0  0  0  0  0  0  0
   -5.6734   -2.4277   -0.1295 H   0  0  0  0  0  0  0  0  0  0  0  0
   -4.3338   -2.6631    2.9457 H   0  0  0  0  0  0  0  0  0  0  0  0
   -4.9024    0.9467   -1.8984 H   0  0  0  0  0  0  0  0  0  0  0  0
   -6.3889    2.8668   -2.1064 H   0  0  0  0  0  0  0  0  0  0  0  0
   -6.6264    4.4714   -0.2624 H   0  0  0  0  0  0  0  0  0  0  0  0
   -5.3126    4.0905    1.8095 H   0  0  0  0  0  0  0  0  0  0  0  0
   -3.8336    2.1805    2.0012 H   0  0  0  0  0  0  0  0  0  0  0  0
  1  2  1  0
  2  3  1  0
  3  4  2  0
  4  5  1  0
  5  6  2  0
  6  7  1  0
  7  8  1  0
  8  9  2  0
  9 10  1  0
 10 11  2  0
 10 12  1  0
 12 13  1  0
 13 14  1  0
 14 15  1  0
 14 16  1  0
 14 17  1  0
 12 18  1  0
  6 19  1  0
 19 20  2  0
  2 21  1  0
 21 22  1  0
 22 23  1  0
 23 24  1  0
 24 25  1  1
 25 26  1  0
 26 27  1  0
 26 28  1  0
 26 29  1  0
 24 30  1  0
 30 31  2  0
 31 32  1  0
 32 33  2  0
 33 34  1  0
 34 35  2  0
 24 36  1  0
 36 37  1  0
 37 38  2  0
 20  3  1  0
 37 21  1  0
 18  7  2  0
 35 30  1  0
  1 39  1  0
  1 40  1  0
  1 41  1  0
  2 42  1  6
  4 43  1  0
  5 44  1  0
  8 45  1  0
  9 46  1  0
 13 47  1  0
 13 48  1  0
 19 49  1  0
 20 50  1  0
 22 51  1  0
 22 52  1  0
 23 53  1  0
 23 54  1  0
 25 55  1  0
 25 56  1  0
 27 57  1  0
 27 58  1  0
 27 59  1  0
 28 60  1  0
 28 61  1  0
 28 62  1  0
 29 63  1  0
 31 64  1  0
 32 65  1  0
 33 66  1  0
 34 67  1  0
 35 68  1  0
M  END
$$$$
