
     RDKit          3D

 55 58  0  0  0  0  0  0  0  0999 V2000
    2.6246    0.4562   -2.3709 O   0  0  0  0  0  0  0  0  0  0  0  0
    3.1441    0.0312   -1.3705 C   0  0  0  0  0  0  0  0  0  0  0  0
    4.2243    0.7932   -0.7169 C   0  0  0  0  0  0  0  0  0  0  0  0
    5.1855   -0.2381   -0.1117 C   0  0  1  0  0  0  0  0  0  0  0  0
    6.4238    0.3885    0.3595 C   0  0  0  0  0  0  0  0  0  0  0  0
    6.4557    1.1238    1.5122 C   0  0  0  0  0  0  0  0  0  0  0  0
    7.6519    1.7090    1.9355 C   0  0  0  0  0  0  0  0  0  0  0  0
    8.8221    1.5700    1.2213 C   0  0  0  0  0  0  0  0  0  0  0  0
    8.7850    0.8288    0.0614 C   0  0  0  0  0  0  0  0  0  0  0  0
    7.5905    0.2452   -0.3600 C   0  0  0  0  0  0  0  0  0  0  0  0
    4.4484   -0.9092    0.9303 N   0  0  0  0  0  0  0  0  0  0  0  0
    3.1518   -1.3901    0.6345 C   0  0  0  0  0  0  0  0  0  0  0  0
    2.4062   -1.9048    1.5053 O   0  0  0  0  0  0  0  0  0  0  0  0
    2.7000   -1.2536   -0.7970 C   0  0  0  0  0  0  0  0  0  0  0  0
    1.2102   -1.3877   -0.8652 C   0  0  0  0  0  0  0  0  0  0  0  0
    0.7778   -2.3543   -1.5223 O   0  0  0  0  0  0  0  0  0  0  0  0
    0.3576   -0.4823   -0.2295 N   0  0  0  0  0  0  0  0  0  0  0  0
   -1.0402   -0.5295   -0.2396 C   0  0  0  0  0  0  0  0  0  0  0  0
   -1.7593   -1.4731   -0.8763 C   0  0  0  0  0  0  0  0  0  0  0  0
   -3.1709   -1.4437   -0.8335 C   0  0  0  0  0  0  0  0  0  0  0  0
   -3.8704   -0.4829   -0.1622 C   0  0  0  0  0  0  0  0  0  0  0  0
   -5.3428   -0.4688   -0.1289 C   0  0  0  0  0  0  0  0  0  0  0  0
   -5.8847   -0.5668    1.2817 C   0  0  0  0  0  0  0  0  0  0  0  0
   -7.1649    0.2112    1.3566 C   0  0  0  0  0  0  0  0  0  0  0  0
   -7.9895    0.0910    0.0910 C   0  0  0  0  0  0  0  0  0  0  0  0
   -7.2739    0.6633   -1.1008 C   0  0  0  0  0  0  0  0  0  0  0  0
   -5.8065    0.8198   -0.7988 C   0  0  0  0  0  0  0  0  0  0  0  0
   -3.1289    0.4854    0.4912 C   0  0  0  0  0  0  0  0  0  0  0  0
   -1.7585    0.4613    0.4526 C   0  0  0  0  0  0  0  0  0  0  0  0
    3.7643    1.3661    0.1340 H   0  0  0  0  0  0  0  0  0  0  0  0
    4.7589    1.4804   -1.4001 H   0  0  0  0  0  0  0  0  0  0  0  0
    5.3672   -1.0033   -0.9082 H   0  0  0  0  0  0  0  0  0  0  0  0
    5.5360    1.2345    2.0759 H   0  0  0  0  0  0  0  0  0  0  0  0
    7.6678    2.2928    2.8546 H   0  0  0  0  0  0  0  0  0  0  0  0
    9.7312    2.0436    1.5887 H   0  0  0  0  0  0  0  0  0  0  0  0
    9.7090    0.7262   -0.4912 H   0  0  0  0  0  0  0  0  0  0  0  0
    7.5862   -0.3313   -1.2725 H   0  0  0  0  0  0  0  0  0  0  0  0
    4.8658   -1.0316    1.8686 H   0  0  0  0  0  0  0  0  0  0  0  0
    3.1466   -2.1135   -1.3225 H   0  0  0  0  0  0  0  0  0  0  0  0
    0.8669    0.3030    0.3018 H   0  0  0  0  0  0  0  0  0  0  0  0
   -1.3255   -2.2822   -1.4392 H   0  0  0  0  0  0  0  0  0  0  0  0
   -3.7256   -2.2248   -1.3613 H   0  0  0  0  0  0  0  0  0  0  0  0
   -5.7202   -1.3288   -0.7139 H   0  0  0  0  0  0  0  0  0  0  0  0
   -6.0822   -1.6162    1.5438 H   0  0  0  0  0  0  0  0  0  0  0  0
   -5.1476   -0.1379    1.9942 H   0  0  0  0  0  0  0  0  0  0  0  0
   -7.7920   -0.2026    2.1772 H   0  0  0  0  0  0  0  0  0  0  0  0
   -6.9454    1.2728    1.5766 H   0  0  0  0  0  0  0  0  0  0  0  0
   -8.3110   -0.9480   -0.0407 H   0  0  0  0  0  0  0  0  0  0  0  0
   -8.8989    0.7298    0.2545 H   0  0  0  0  0  0  0  0  0  0  0  0
   -7.4398   -0.0289   -1.9522 H   0  0  0  0  0  0  0  0  0  0  0  0
   -7.6784    1.6687   -1.4011 H   0  0  0  0  0  0  0  0  0  0  0  0
   -5.7151    1.6633   -0.0702 H   0  0  0  0  0  0  0  0  0  0  0  0
   -5.1953    0.9864   -1.7022 H   0  0  0  0  0  0  0  0  0  0  0  0
   -3.6230    1.2800    1.0450 H   0  0  0  0  0  0  0  0  0  0  0  0
   -1.1691    1.2083    0.9564 H   0  0  0  0  0  0  0  0  0  0  0  0
  1  2  2  0
  2  3  1  0
  3  4  1  0
  4  5  1  0
  5  6  2  0
  6  7  1  0
  7  8  2  0
  8  9  1  0
  9 10  2  0
  4 11  1  0
 11 12  1  0
 12 13  2  0
 12 14  1  0
 14 15  1  0
 15 16  2  0
 15 17  1  0
 17 18  1  0
 18 19  2  0
 19 20  1  0
 20 21  2  0
 21 22  1  0
 22 23  1  0
 23 24  1  0
 24 25  1  0
 25 26  1  0
 26 27  1  0
 21 28  1  0
 28 29  2  0
 14  2  1  0
 29 18  1  0
 10  5  1  0
 27 22  1  0
  3 30  1  0
  3 31  1  0
  4 32  1  6
  6 33  1  0
  7 34  1  0
  8 35  1  0
  9 36  1  0
 10 37  1  0
 11 38  1  0
 14 39  1  0
 17 40  1  0
 19 41  1  0
 20 42  1  0
 22 43  1  0
 23 44  1  0
 23 45  1  0
 24 46  1  0
 24 47  1  0
 25 48  1  0
 25 49  1  0
 26 50  1  0
 26 51  1  0
 27 52  1  0
 27 53  1  0
 28 54  1  0
 29 55  1  0
M  END
$$$$
