
     RDKit          3D

 48 51  0  0  0  0  0  0  0  0999 V2000
    4.8006   -2.3373    0.0152 C   0  0  0  0  0  0  0  0  0  0  0  0
    4.6776   -0.8826    0.1872 C   0  0  0  0  0  0  0  0  0  0  0  0
    5.7937   -0.0772    0.4225 C   0  0  0  0  0  0  0  0  0  0  0  0
    5.6715    1.2806    0.5822 C   0  0  0  0  0  0  0  0  0  0  0  0
    6.8624    2.1664    0.8366 C   0  0  0  0  0  0  0  0  0  0  0  0
    7.4480    2.5227   -0.3395 F   0  0  0  0  0  0  0  0  0  0  0  0
    7.7085    1.5538    1.7205 F   0  0  0  0  0  0  0  0  0  0  0  0
    6.3912    3.3271    1.4573 F   0  0  0  0  0  0  0  0  0  0  0  0
    4.4199    1.8466    0.5068 C   0  0  0  0  0  0  0  0  0  0  0  0
    3.3492    1.0669    0.2802 N   0  0  0  0  0  0  0  0  0  0  0  0
    3.4631   -0.2726    0.1218 C   0  0  0  0  0  0  0  0  0  0  0  0
    2.2339   -1.0692   -0.1257 C   0  0  0  0  0  0  0  0  0  0  0  0
    2.3162   -2.3000   -0.2736 O   0  0  0  0  0  0  0  0  0  0  0  0
    0.9724   -0.4386   -0.1941 N   0  0  0  0  0  0  0  0  0  0  0  0
   -0.2815   -1.0453   -0.4201 C   0  0  0  0  0  0  0  0  0  0  0  0
   -0.4539   -2.3962   -0.6131 C   0  0  0  0  0  0  0  0  0  0  0  0
   -1.7300   -2.8780   -0.8253 C   0  0  0  0  0  0  0  0  0  0  0  0
   -2.8218   -2.0186   -0.8443 C   0  0  0  0  0  0  0  0  0  0  0  0
   -4.3927   -2.7622   -1.0810 Cl  0  0  0  0  0  0  0  0  0  0  0  0
   -2.6205   -0.6801   -0.6507 C   0  0  0  0  0  0  0  0  0  0  0  0
   -3.8248    0.2326   -0.7159 C   0  0  1  0  0  0  0  0  0  0  0  0
   -4.3436    0.1874   -2.1201 C   0  0  0  0  0  0  0  0  0  0  0  0
   -3.2855    0.6420   -2.9260 F   0  0  0  0  0  0  0  0  0  0  0  0
   -4.7341   -0.2430    0.2815 N   0  0  0  0  0  0  0  0  0  0  0  0
   -4.5668    0.0310    1.5176 C   0  0  0  0  0  0  0  0  0  0  0  0
   -5.4794   -0.4481    2.5364 N   0  0  0  0  0  0  0  0  0  0  0  0
   -3.4606    0.8150    1.8222 O   0  0  0  0  0  0  0  0  0  0  0  0
   -3.1445    1.8911    0.9678 C   0  0  2  0  0  0  0  0  0  0  0  0
   -4.2836    2.6251    0.2456 C   0  0  0  0  0  0  0  0  0  0  0  0
   -3.3726    1.6572   -0.4524 C   0  0  2  0  0  0  0  0  0  0  0  0
   -1.3721   -0.1855   -0.4396 C   0  0  0  0  0  0  0  0  0  0  0  0
    5.8964   -2.5879    0.0901 H   0  0  0  0  0  0  0  0  0  0  0  0
    4.4863   -2.6583   -0.9964 H   0  0  0  0  0  0  0  0  0  0  0  0
    4.2618   -2.9189    0.8187 H   0  0  0  0  0  0  0  0  0  0  0  0
    6.7530   -0.5499    0.4753 H   0  0  0  0  0  0  0  0  0  0  0  0
    4.3282    2.9266    0.6345 H   0  0  0  0  0  0  0  0  0  0  0  0
    0.9957    0.6184   -0.0559 H   0  0  0  0  0  0  0  0  0  0  0  0
    0.3882   -3.0989   -0.6035 H   0  0  0  0  0  0  0  0  0  0  0  0
   -1.8627   -3.9451   -0.9773 H   0  0  0  0  0  0  0  0  0  0  0  0
   -5.1695    0.9103   -2.2961 H   0  0  0  0  0  0  0  0  0  0  0  0
   -4.5775   -0.8080   -2.5066 H   0  0  0  0  0  0  0  0  0  0  0  0
   -5.3648   -1.3436    3.0219 H   0  0  0  0  0  0  0  0  0  0  0  0
   -6.2771    0.1875    2.7500 H   0  0  0  0  0  0  0  0  0  0  0  0
   -2.2623    2.5085    1.2391 H   0  0  0  0  0  0  0  0  0  0  0  0
   -5.3012    2.2461    0.5533 H   0  0  0  0  0  0  0  0  0  0  0  0
   -4.1782    3.6943    0.0719 H   0  0  0  0  0  0  0  0  0  0  0  0
   -2.7592    2.1205   -1.2502 H   0  0  0  0  0  0  0  0  0  0  0  0
   -1.2974    0.8874   -0.2951 H   0  0  0  0  0  0  0  0  0  0  0  0
  1  2  1  0
  2  3  2  0
  3  4  1  0
  4  5  1  0
  5  6  1  0
  5  7  1  0
  5  8  1  0
  4  9  2  0
  9 10  1  0
 10 11  2  0
 11 12  1  0
 12 13  2  0
 12 14  1  0
 14 15  1  0
 15 16  2  0
 16 17  1  0
 17 18  2  0
 18 19  1  0
 18 20  1  0
 20 21  1  0
 21 22  1  6
 22 23  1  0
 21 24  1  0
 24 25  2  0
 25 26  1  0
 25 27  1  0
 27 28  1  0
 28 29  1  0
 29 30  1  0
 20 31  2  0
 11  2  1  0
 31 15  1  0
 30 21  1  0
 30 28  1  0
  1 32  1  0
  1 33  1  0
  1 34  1  0
  3 35  1  0
  9 36  1  0
 14 37  1  0
 16 38  1  0
 17 39  1  0
 22 40  1  0
 22 41  1  0
 26 42  1  0
 26 43  1  0
 28 44  1  6
 29 45  1  0
 29 46  1  0
 30 47  1  6
 31 48  1  0
M  END
$$$$
