
     RDKit          3D

 53 56  0  0  0  0  0  0  0  0999 V2000
   -3.4744    1.3835    1.4537 O   0  0  0  0  0  0  0  0  0  0  0  0
   -2.6680    0.9745    0.5627 C   0  0  0  0  0  0  0  0  0  0  0  0
   -1.3112    0.8417    0.8893 C   0  0  0  0  0  0  0  0  0  0  0  0
   -0.4081    0.4042   -0.0409 C   0  0  0  0  0  0  0  0  0  0  0  0
    1.0292    0.2351    0.2097 C   0  0  0  0  0  0  0  0  0  0  0  0
    1.5770    0.5160    1.4346 C   0  0  0  0  0  0  0  0  0  0  0  0
    2.9386    0.3608    1.6859 C   0  0  0  0  0  0  0  0  0  0  0  0
    3.6979   -0.0781    0.6730 N   0  0  0  0  0  0  0  0  0  0  0  0
    3.1678   -0.3585   -0.5404 C   0  0  0  0  0  0  0  0  0  0  0  0
    4.0122   -0.8214   -1.5833 N   0  0  0  0  0  0  0  0  0  0  0  0
    5.4288   -0.9951   -1.3956 C   0  0  0  0  0  0  0  0  0  0  0  0
    6.1023    0.3040   -1.0790 C   0  0  0  0  0  0  0  0  0  0  0  0
    7.6071    0.1105   -1.0370 C   0  0  0  0  0  0  0  0  0  0  0  0
    7.9530   -0.9962   -0.2647 O   0  0  0  0  0  0  0  0  0  0  0  0
    6.8941   -1.4467    0.5069 C   0  0  0  0  0  0  0  0  0  0  0  0
    5.7496   -1.9979   -0.3022 C   0  0  0  0  0  0  0  0  0  0  0  0
    1.8522   -0.2018   -0.7613 N   0  0  0  0  0  0  0  0  0  0  0  0
   -0.9327    0.1108   -1.3006 C   0  0  0  0  0  0  0  0  0  0  0  0
   -2.2704    0.2556   -1.5773 C   0  0  0  0  0  0  0  0  0  0  0  0
   -3.1623    0.6902   -0.6502 N   0  0  0  0  0  0  0  0  0  0  0  0
   -4.5668    0.8328   -0.9733 C   0  0  2  0  0  0  0  0  0  0  0  0
   -4.9394    2.2873   -1.2051 C   0  0  0  0  0  0  0  0  0  0  0  0
   -4.7155    3.1063   -0.1310 O   0  0  0  0  0  0  0  0  0  0  0  0
   -5.4802    0.1268   -0.0680 C   0  0  0  0  0  0  0  0  0  0  0  0
   -6.2040    0.7103    0.9283 C   0  0  0  0  0  0  0  0  0  0  0  0
   -7.0286   -0.0507    1.7261 C   0  0  0  0  0  0  0  0  0  0  0  0
   -7.1496   -1.4162    1.5464 C   0  0  0  0  0  0  0  0  0  0  0  0
   -8.1839   -2.4129    2.5373 Cl  0  0  0  0  0  0  0  0  0  0  0  0
   -6.4275   -2.0309    0.5443 C   0  0  0  0  0  0  0  0  0  0  0  0
   -6.5077   -3.3781    0.3216 F   0  0  0  0  0  0  0  0  0  0  0  0
   -5.6114   -1.2550   -0.2397 C   0  0  0  0  0  0  0  0  0  0  0  0
   -0.9898    1.0888    1.8830 H   0  0  0  0  0  0  0  0  0  0  0  0
    0.9327    0.8711    2.2374 H   0  0  0  0  0  0  0  0  0  0  0  0
    3.3406    0.5940    2.6733 H   0  0  0  0  0  0  0  0  0  0  0  0
    3.5949   -1.0419   -2.5119 H   0  0  0  0  0  0  0  0  0  0  0  0
    5.8957   -1.3545   -2.3573 H   0  0  0  0  0  0  0  0  0  0  0  0
    5.7711    0.6969   -0.1192 H   0  0  0  0  0  0  0  0  0  0  0  0
    5.9122    1.0252   -1.9152 H   0  0  0  0  0  0  0  0  0  0  0  0
    8.0162   -0.0417   -2.0445 H   0  0  0  0  0  0  0  0  0  0  0  0
    8.0278    1.0109   -0.5649 H   0  0  0  0  0  0  0  0  0  0  0  0
    7.2922   -2.2656    1.1519 H   0  0  0  0  0  0  0  0  0  0  0  0
    6.5329   -0.6588    1.1975 H   0  0  0  0  0  0  0  0  0  0  0  0
    4.8829   -2.1149    0.3512 H   0  0  0  0  0  0  0  0  0  0  0  0
    6.0240   -2.9630   -0.7751 H   0  0  0  0  0  0  0  0  0  0  0  0
   -0.2229   -0.2386   -2.0497 H   0  0  0  0  0  0  0  0  0  0  0  0
   -2.6750    0.0221   -2.5725 H   0  0  0  0  0  0  0  0  0  0  0  0
   -4.7177    0.3571   -1.9909 H   0  0  0  0  0  0  0  0  0  0  0  0
   -4.3746    2.5975   -2.1203 H   0  0  0  0  0  0  0  0  0  0  0  0
   -6.0099    2.3741   -1.4814 H   0  0  0  0  0  0  0  0  0  0  0  0
   -5.3996    3.8092   -0.0014 H   0  0  0  0  0  0  0  0  0  0  0  0
   -6.1483    1.7641    1.1044 H   0  0  0  0  0  0  0  0  0  0  0  0
   -7.6254    0.3825    2.5367 H   0  0  0  0  0  0  0  0  0  0  0  0
   -5.0281   -1.7256   -1.0434 H   0  0  0  0  0  0  0  0  0  0  0  0
  1  2  2  0
  2  3  1  0
  3  4  2  0
  4  5  1  0
  5  6  2  0
  6  7  1  0
  7  8  2  0
  8  9  1  0
  9 10  1  0
 10 11  1  0
 11 12  1  0
 12 13  1  0
 13 14  1  0
 14 15  1  0
 15 16  1  0
  9 17  2  0
  4 18  1  0
 18 19  2  0
 19 20  1  0
 20 21  1  0
 21 22  1  0
 22 23  1  0
 21 24  1  0
 24 25  2  0
 25 26  1  0
 26 27  2  0
 27 28  1  0
 27 29  1  0
 29 30  1  0
 29 31  2  0
 20  2  1  0
 31 24  1  0
 17  5  1  0
 16 11  1  0
  3 32  1  0
  6 33  1  0
  7 34  1  0
 10 35  1  0
 11 36  1  0
 12 37  1  0
 12 38  1  0
 13 39  1  0
 13 40  1  0
 15 41  1  0
 15 42  1  0
 16 43  1  0
 16 44  1  0
 18 45  1  0
 19 46  1  0
 21 47  1  6
 22 48  1  0
 22 49  1  0
 23 50  1  0
 25 51  1  0
 26 52  1  0
 31 53  1  0
M  END
$$$$
