
     RDKit          3D

 65 69  0  0  0  0  0  0  0  0999 V2000
    5.3998    2.4920   -0.5453 O   0  0  0  0  0  0  0  0  0  0  0  0
    5.1110    1.2679   -0.6828 C   0  0  0  0  0  0  0  0  0  0  0  0
    5.9845    0.2877   -0.1742 N   0  0  0  0  0  0  0  0  0  0  0  0
    7.2371    0.6524    0.5201 C   0  0  0  0  0  0  0  0  0  0  0  0
    7.2684    0.1338    1.9181 C   0  0  0  0  0  0  0  0  0  0  0  0
    8.2133   -1.0028    2.1370 C   0  0  0  0  0  0  0  0  0  0  0  0
    9.6671   -0.5415    2.0999 C   0  0  0  0  0  0  0  0  0  0  0  0
    9.9053    0.2382    0.5192 S   0  0  0  0  0  6  0  0  0  0  0  0
   10.3445    1.6566    0.6531 O   0  0  0  0  0  0  0  0  0  0  0  0
   10.9121   -0.5646   -0.2929 O   0  0  0  0  0  0  0  0  0  0  0  0
    8.3531    0.1202   -0.3481 C   0  0  0  0  0  0  0  0  0  0  0  0
    3.8844    0.9268   -1.3631 C   0  0  0  0  0  0  0  0  0  0  0  0
    3.4587   -0.3581   -1.5759 C   0  0  0  0  0  0  0  0  0  0  0  0
    2.2582   -0.6426   -2.2427 C   0  0  0  0  0  0  0  0  0  0  0  0
    1.4593    0.3725   -2.7105 C   0  0  0  0  0  0  0  0  0  0  0  0
    0.2938    0.1006   -3.3579 O   0  0  0  0  0  0  0  0  0  0  0  0
   -0.8857   -0.0155   -2.6300 C   0  0  0  0  0  0  0  0  0  0  0  0
   -0.8613    0.1465   -1.2562 C   0  0  0  0  0  0  0  0  0  0  0  0
   -1.9841    0.0470   -0.4670 C   0  0  0  0  0  0  0  0  0  0  0  0
   -3.1893   -0.2282   -1.0855 C   0  0  0  0  0  0  0  0  0  0  0  0
   -4.3608   -0.3319   -0.2612 C   0  0  0  0  0  0  0  0  0  0  0  0
   -5.3523   -0.4404    0.4367 C   0  0  0  0  0  0  0  0  0  0  0  0
   -6.5551   -0.5508    1.2669 C   0  0  2  0  0  0  0  0  0  0  0  0
   -6.1671   -0.6126    2.5880 O   0  0  0  0  0  0  0  0  0  0  0  0
   -7.3892   -1.7640    0.8529 C   0  0  0  0  0  0  0  0  0  0  0  0
   -8.3299   -1.3881   -0.1847 N   0  0  0  0  0  0  0  0  0  0  0  0
   -7.7403   -0.4678   -1.1340 C   0  0  0  0  0  0  0  0  0  0  0  0
   -7.4072    0.8683   -0.5225 C   0  0  0  0  0  0  0  0  0  0  0  0
   -7.4040    0.6800    0.9933 C   0  0  0  0  0  0  0  0  0  0  0  0
   -8.8406    0.4070    1.4113 C   0  0  0  0  0  0  0  0  0  0  0  0
   -9.4094   -0.6476    0.4847 C   0  0  0  0  0  0  0  0  0  0  0  0
   -3.2138   -0.3896   -2.4534 C   0  0  0  0  0  0  0  0  0  0  0  0
   -2.0935   -0.2906   -3.2431 C   0  0  0  0  0  0  0  0  0  0  0  0
    1.8683    1.6684   -2.5073 C   0  0  0  0  0  0  0  0  0  0  0  0
    3.0494    1.9326   -1.8509 C   0  0  0  0  0  0  0  0  0  0  0  0
    5.7298   -0.7163   -0.2970 H   0  0  0  0  0  0  0  0  0  0  0  0
    7.2794    1.7453    0.5222 H   0  0  0  0  0  0  0  0  0  0  0  0
    6.2642   -0.1847    2.2598 H   0  0  0  0  0  0  0  0  0  0  0  0
    7.5620    0.9664    2.6225 H   0  0  0  0  0  0  0  0  0  0  0  0
    8.0983   -1.7853    1.3653 H   0  0  0  0  0  0  0  0  0  0  0  0
    8.0109   -1.4287    3.1442 H   0  0  0  0  0  0  0  0  0  0  0  0
    9.8706    0.2175    2.8839 H   0  0  0  0  0  0  0  0  0  0  0  0
   10.3123   -1.4302    2.1655 H   0  0  0  0  0  0  0  0  0  0  0  0
    8.1741   -0.8862   -0.7248 H   0  0  0  0  0  0  0  0  0  0  0  0
    8.3983    0.7962   -1.2418 H   0  0  0  0  0  0  0  0  0  0  0  0
    4.0433   -1.1771   -1.2320 H   0  0  0  0  0  0  0  0  0  0  0  0
    1.9402   -1.6721   -2.4002 H   0  0  0  0  0  0  0  0  0  0  0  0
    0.0795    0.3622   -0.7666 H   0  0  0  0  0  0  0  0  0  0  0  0
   -1.9588    0.1761    0.6187 H   0  0  0  0  0  0  0  0  0  0  0  0
   -6.0390   -1.5644    2.8519 H   0  0  0  0  0  0  0  0  0  0  0  0
   -7.9450   -2.1937    1.6929 H   0  0  0  0  0  0  0  0  0  0  0  0
   -6.6765   -2.4957    0.4330 H   0  0  0  0  0  0  0  0  0  0  0  0
   -8.5235   -0.2915   -1.9195 H   0  0  0  0  0  0  0  0  0  0  0  0
   -6.8495   -0.8896   -1.6432 H   0  0  0  0  0  0  0  0  0  0  0  0
   -8.0767    1.6805   -0.8366 H   0  0  0  0  0  0  0  0  0  0  0  0
   -6.3546    1.1885   -0.7777 H   0  0  0  0  0  0  0  0  0  0  0  0
   -6.9866    1.5767    1.4557 H   0  0  0  0  0  0  0  0  0  0  0  0
   -8.8064    0.0095    2.4316 H   0  0  0  0  0  0  0  0  0  0  0  0
   -9.4038    1.3742    1.3336 H   0  0  0  0  0  0  0  0  0  0  0  0
  -10.0135   -1.4051    1.0183 H   0  0  0  0  0  0  0  0  0  0  0  0
   -9.9895   -0.1657   -0.3140 H   0  0  0  0  0  0  0  0  0  0  0  0
   -4.1533   -0.6043   -2.9359 H   0  0  0  0  0  0  0  0  0  0  0  0
   -2.0868   -0.4129   -4.3169 H   0  0  0  0  0  0  0  0  0  0  0  0
    1.2472    2.4915   -2.8716 H   0  0  0  0  0  0  0  0  0  0  0  0
    3.3685    2.9571   -1.6926 H   0  0  0  0  0  0  0  0  0  0  0  0
  1  2  2  0
  2  3  1  0
  3  4  1  0
  4  5  1  0
  5  6  1  0
  6  7  1  0
  7  8  1  0
  8  9  2  0
  8 10  2  0
  8 11  1  0
  2 12  1  0
 12 13  2  0
 13 14  1  0
 14 15  2  0
 15 16  1  0
 16 17  1  0
 17 18  2  0
 18 19  1  0
 19 20  2  0
 20 21  1  0
 21 22  3  0
 23 22  1  6
 23 24  1  0
 23 25  1  0
 25 26  1  0
 26 27  1  0
 27 28  1  0
 28 29  1  0
 29 30  1  0
 30 31  1  0
 20 32  1  0
 32 33  2  0
 15 34  1  0
 34 35  2  0
 11  4  1  0
 35 12  1  0
 33 17  1  0
 29 23  1  0
 31 26  1  0
  3 36  1  0
  4 37  1  0
  5 38  1  0
  5 39  1  0
  6 40  1  0
  6 41  1  0
  7 42  1  0
  7 43  1  0
 11 44  1  0
 11 45  1  0
 13 46  1  0
 14 47  1  0
 18 48  1  0
 19 49  1  0
 24 50  1  0
 25 51  1  0
 25 52  1  0
 27 53  1  0
 27 54  1  0
 28 55  1  0
 28 56  1  0
 29 57  1  0
 30 58  1  0
 30 59  1  0
 31 60  1  0
 31 61  1  0
 32 62  1  0
 33 63  1  0
 34 64  1  0
 35 65  1  0
M  END
$$$$
