
     RDKit          3D

 35 36  0  0  0  0  0  0  0  0999 V2000
    6.0886    0.9472    0.8120 C   0  0  0  0  0  0  0  0  0  0  0  0
    4.6528    0.8210    0.4520 C   0  0  0  0  0  0  0  0  0  0  0  0
    3.9461    1.9049   -0.0212 C   0  0  0  0  0  0  0  0  0  0  0  0
    2.6154    1.7464   -0.3442 C   0  0  0  0  0  0  0  0  0  0  0  0
    1.9695    0.5244   -0.2052 C   0  0  0  0  0  0  0  0  0  0  0  0
    0.5594    0.3668   -0.5501 C   0  0  0  0  0  0  0  0  0  0  0  0
   -0.0530    1.3744   -0.9777 O   0  0  0  0  0  0  0  0  0  0  0  0
   -0.0913   -0.8248   -0.4203 O   0  0  0  0  0  0  0  0  0  0  0  0
   -1.4133   -1.0171   -0.7321 N   0  0  0  0  0  0  0  0  0  0  0  0
   -2.3201   -0.3238   -0.1309 C   0  0  0  0  0  0  0  0  0  0  0  0
   -1.9525    0.6351    0.8503 N   0  0  0  0  0  0  0  0  0  0  0  0
   -3.7450   -0.4951   -0.4315 C   0  0  0  0  0  0  0  0  0  0  0  0
   -4.7058    0.2504    0.2164 C   0  0  0  0  0  0  0  0  0  0  0  0
   -6.0503    0.0991   -0.0570 C   0  0  0  0  0  0  0  0  0  0  0  0
   -6.4778   -0.8143   -0.9988 C   0  0  0  0  0  0  0  0  0  0  0  0
   -5.4797   -1.5522   -1.6357 C   0  0  0  0  0  0  0  0  0  0  0  0
   -4.1737   -1.3824   -1.3476 N   0  0  0  0  0  0  0  0  0  0  0  0
    2.6751   -0.5616    0.2682 C   0  0  0  0  0  0  0  0  0  0  0  0
    2.0022   -1.8938    0.4283 C   0  0  0  0  0  0  0  0  0  0  0  0
    4.0075   -0.3882    0.5878 C   0  0  0  0  0  0  0  0  0  0  0  0
    6.2910    0.5303    1.8416 H   0  0  0  0  0  0  0  0  0  0  0  0
    6.6907    0.2860    0.1250 H   0  0  0  0  0  0  0  0  0  0  0  0
    6.4615    1.9686    0.7021 H   0  0  0  0  0  0  0  0  0  0  0  0
    4.4351    2.8801   -0.1394 H   0  0  0  0  0  0  0  0  0  0  0  0
    2.0112    2.5783   -0.7242 H   0  0  0  0  0  0  0  0  0  0  0  0
   -2.2099    1.6354    0.7142 H   0  0  0  0  0  0  0  0  0  0  0  0
   -1.4285    0.3674    1.7102 H   0  0  0  0  0  0  0  0  0  0  0  0
   -4.3807    0.9677    0.9549 H   0  0  0  0  0  0  0  0  0  0  0  0
   -6.8210    0.6847    0.4505 H   0  0  0  0  0  0  0  0  0  0  0  0
   -7.5193   -0.9718   -1.2504 H   0  0  0  0  0  0  0  0  0  0  0  0
   -5.8202   -2.2631   -2.3694 H   0  0  0  0  0  0  0  0  0  0  0  0
    1.6928   -2.3240   -0.5359 H   0  0  0  0  0  0  0  0  0  0  0  0
    2.7811   -2.6091    0.8271 H   0  0  0  0  0  0  0  0  0  0  0  0
    1.2178   -1.8748    1.2007 H   0  0  0  0  0  0  0  0  0  0  0  0
    4.5443   -1.2722    0.9629 H   0  0  0  0  0  0  0  0  0  0  0  0
  1  2  1  0
  2  3  2  0
  3  4  1  0
  4  5  2  0
  5  6  1  0
  6  7  2  0
  6  8  1  0
  8  9  1  0
  9 10  2  3
 10 11  1  0
 10 12  1  0
 12 13  2  0
 13 14  1  0
 14 15  2  0
 15 16  1  0
 16 17  2  0
  5 18  1  0
 18 19  1  0
 18 20  2  0
 20  2  1  0
 17 12  1  0
  1 21  1  0
  1 22  1  0
  1 23  1  0
  3 24  1  0
  4 25  1  0
 11 26  1  0
 11 27  1  0
 13 28  1  0
 14 29  1  0
 15 30  1  0
 16 31  1  0
 19 32  1  0
 19 33  1  0
 19 34  1  0
 20 35  1  0
M  END
$$$$
