
     RDKit          3D

 47 49  0  0  0  0  0  0  0  0999 V2000
   -0.1886   -2.9690   -2.8136 C   0  0  0  0  0  0  0  0  0  0  0  0
    0.1212   -2.5744   -1.3862 C   0  0  0  0  0  0  0  0  0  0  0  0
   -0.7941   -1.6554   -0.8681 O   0  0  0  0  0  0  0  0  0  0  0  0
   -1.0396   -0.4059   -1.3833 C   0  0  0  0  0  0  0  0  0  0  0  0
   -0.4181   -0.0232   -2.3901 O   0  0  0  0  0  0  0  0  0  0  0  0
   -2.0109    0.4687   -0.7703 C   0  0  0  0  0  0  0  0  0  0  0  0
   -3.3763    0.5583   -1.0595 C   0  0  0  0  0  0  0  0  0  0  0  0
   -4.0188   -0.2835   -2.0889 C   0  0  0  0  0  0  0  0  0  0  0  0
   -3.9390    1.4889   -0.2756 N   0  0  0  0  0  0  0  0  0  0  0  0
   -3.0166    2.0253    0.5230 C   0  0  0  0  0  0  0  0  0  0  0  0
   -3.0108    2.9917    1.5009 C   0  0  0  0  0  0  0  0  0  0  0  0
   -4.0991    3.5634    1.7760 O   0  0  0  0  0  0  0  0  0  0  0  0
   -1.8770    3.3132    2.1410 N   0  0  0  0  0  0  0  0  0  0  0  0
   -1.9456    4.3369    3.1565 C   0  0  0  0  0  0  0  0  0  0  0  0
   -0.7116    2.7089    1.8543 C   0  0  0  0  0  0  0  0  0  0  0  0
   -0.6365    1.7158    0.8719 C   0  0  0  0  0  0  0  0  0  0  0  0
    0.5835    1.0472    0.5334 C   0  0  0  0  0  0  0  0  0  0  0  0
    1.6077    0.4658    0.2514 C   0  0  0  0  0  0  0  0  0  0  0  0
    2.8183   -0.2200   -0.0788 C   0  0  0  0  0  0  0  0  0  0  0  0
    3.3872   -0.2438   -1.3323 C   0  0  0  0  0  0  0  0  0  0  0  0
    4.5634   -0.9233   -1.6005 C   0  0  0  0  0  0  0  0  0  0  0  0
    5.2111   -1.6092   -0.6000 C   0  0  0  0  0  0  0  0  0  0  0  0
    4.6623   -1.6000    0.6592 C   0  0  0  0  0  0  0  0  0  0  0  0
    3.4777   -0.9095    0.9071 C   0  0  0  0  0  0  0  0  0  0  0  0
    2.9281   -0.9040    2.1816 O   0  0  0  0  0  0  0  0  0  0  0  0
    2.0135   -1.9389    2.4890 C   0  0  0  0  0  0  0  0  0  0  0  0
    0.9330   -1.9251    1.6590 F   0  0  0  0  0  0  0  0  0  0  0  0
    2.6163   -3.1948    2.4233 F   0  0  0  0  0  0  0  0  0  0  0  0
    1.5403   -1.8224    3.7911 F   0  0  0  0  0  0  0  0  0  0  0  0
   -1.8091    1.4049    0.2318 C   0  0  0  0  0  0  0  0  0  0  0  0
   -1.1788   -2.5908   -3.1352 H   0  0  0  0  0  0  0  0  0  0  0  0
    0.6302   -2.6464   -3.5182 H   0  0  0  0  0  0  0  0  0  0  0  0
   -0.2246   -4.0750   -2.8942 H   0  0  0  0  0  0  0  0  0  0  0  0
    0.0573   -3.4924   -0.7350 H   0  0  0  0  0  0  0  0  0  0  0  0
    1.1798   -2.2555   -1.3257 H   0  0  0  0  0  0  0  0  0  0  0  0
   -5.1312   -0.1983   -1.9831 H   0  0  0  0  0  0  0  0  0  0  0  0
   -3.6969    0.0240   -3.1218 H   0  0  0  0  0  0  0  0  0  0  0  0
   -3.7701   -1.3480   -1.9219 H   0  0  0  0  0  0  0  0  0  0  0  0
   -4.9482    1.7734   -0.2689 H   0  0  0  0  0  0  0  0  0  0  0  0
   -1.1432    4.2453    3.9177 H   0  0  0  0  0  0  0  0  0  0  0  0
   -1.8284    5.3194    2.6850 H   0  0  0  0  0  0  0  0  0  0  0  0
   -2.9046    4.3189    3.7184 H   0  0  0  0  0  0  0  0  0  0  0  0
    0.2160    2.9503    2.3561 H   0  0  0  0  0  0  0  0  0  0  0  0
    2.8720    0.3027   -2.1313 H   0  0  0  0  0  0  0  0  0  0  0  0
    4.9971   -0.9294   -2.6004 H   0  0  0  0  0  0  0  0  0  0  0  0
    6.1468   -2.1521   -0.8053 H   0  0  0  0  0  0  0  0  0  0  0  0
    5.1551   -2.1327    1.4606 H   0  0  0  0  0  0  0  0  0  0  0  0
  1  2  1  0
  2  3  1  0
  3  4  1  0
  4  5  2  0
  4  6  1  0
  6  7  2  0
  7  8  1  0
  7  9  1  0
  9 10  1  0
 10 11  1  0
 11 12  2  0
 11 13  1  0
 13 14  1  0
 13 15  1  0
 15 16  2  0
 16 17  1  0
 17 18  3  0
 18 19  1  0
 19 20  2  0
 20 21  1  0
 21 22  2  0
 22 23  1  0
 23 24  2  0
 24 25  1  0
 25 26  1  0
 26 27  1  0
 26 28  1  0
 26 29  1  0
 16 30  1  0
 30  6  1  0
 30 10  2  0
 24 19  1  0
  1 31  1  0
  1 32  1  0
  1 33  1  0
  2 34  1  0
  2 35  1  0
  8 36  1  0
  8 37  1  0
  8 38  1  0
  9 39  1  0
 14 40  1  0
 14 41  1  0
 14 42  1  0
 15 43  1  0
 20 44  1  0
 21 45  1  0
 22 46  1  0
 23 47  1  0
M  END
$$$$
