
     RDKit          3D

 74 78  0  0  0  0  0  0  0  0999 V2000
    5.9494   -2.2618   -0.8164 C   0  0  0  0  0  0  0  0  0  0  0  0
    6.5001   -1.0274   -0.1835 C   0  0  0  0  0  0  0  0  0  0  0  0
    7.5353   -1.1325    0.7278 C   0  0  0  0  0  0  0  0  0  0  0  0
    8.0867   -0.0467    1.3521 C   0  0  0  0  0  0  0  0  0  0  0  0
    7.5905    1.1587    1.0562 N   0  0  0  0  0  4  0  0  0  0  0  0
    8.1135    2.2716    1.6544 O   0  0  0  0  0  1  0  0  0  0  0  0
    6.5699    1.3076    0.1632 C   0  0  0  0  0  0  0  0  0  0  0  0
    6.0803    2.6669   -0.1031 C   0  0  0  0  0  0  0  0  0  0  0  0
    6.0067    0.2260   -0.4717 C   0  0  0  0  0  0  0  0  0  0  0  0
    4.9275    0.3393   -1.4346 C   0  0  0  0  0  0  0  0  0  0  0  0
    5.2746    0.7763   -2.5850 O   0  0  0  0  0  0  0  0  0  0  0  0
    3.5847    0.0152   -1.2017 N   0  0  0  0  0  0  0  0  0  0  0  0
    3.0304   -0.4748    0.0250 C   0  0  0  0  0  0  0  0  0  0  0  0
    1.7616   -1.2813   -0.1457 C   0  0  0  0  0  0  0  0  0  0  0  0
    0.7119   -0.5617   -0.9807 C   0  0  0  0  0  0  0  0  0  0  0  0
    0.3858   -1.4977   -2.1599 C   0  0  0  0  0  0  0  0  0  0  0  0
   -0.4268   -0.3502   -0.1954 N   0  0  0  0  0  0  0  0  0  0  0  0
   -1.1119   -1.4834    0.3212 C   0  0  0  0  0  0  0  0  0  0  0  0
   -2.3659   -0.9563    1.0204 C   0  0  0  0  0  0  0  0  0  0  0  0
   -2.9497    0.2035    0.2256 C   0  0  0  0  0  0  0  0  0  0  0  0
   -4.3545    0.3101    0.2448 N   0  0  0  0  0  0  0  0  0  0  0  0
   -5.2095    1.4417    0.1320 C   0  0  0  0  0  0  0  0  0  0  0  0
   -6.5421    1.2588   -0.1938 C   0  0  0  0  0  0  0  0  0  0  0  0
   -7.5011    2.2464   -0.2676 C   0  0  0  0  0  0  0  0  0  0  0  0
   -7.0864    3.5339    0.0086 C   0  0  0  0  0  0  0  0  0  0  0  0
   -5.7793    3.7483    0.3301 C   0  0  0  0  0  0  0  0  0  0  0  0
   -4.8227    2.7322    0.4004 C   0  0  0  0  0  0  0  0  0  0  0  0
   -5.0071   -0.9881    0.3222 C   0  0  0  0  0  0  0  0  0  0  0  0
   -6.1892   -1.1665    0.9820 C   0  0  0  0  0  0  0  0  0  0  0  0
   -6.9122   -2.3376    0.9624 C   0  0  0  0  0  0  0  0  0  0  0  0
   -6.3999   -3.3863    0.2289 C   0  0  0  0  0  0  0  0  0  0  0  0
   -5.2349   -3.2177   -0.4237 N   0  0  0  0  0  0  0  0  0  0  0  0
   -4.5336   -2.0715   -0.4015 C   0  0  0  0  0  0  0  0  0  0  0  0
   -2.0701    1.3626    0.4986 C   0  0  0  0  0  0  0  0  0  0  0  0
   -0.6001    0.8400    0.5377 C   0  0  0  0  0  0  0  0  0  0  0  0
    1.3281    0.6520   -1.5921 C   0  0  0  0  0  0  0  0  0  0  0  0
    2.6158    0.1791   -2.2994 C   0  0  0  0  0  0  0  0  0  0  0  0
    5.3554   -2.7829   -0.0403 H   0  0  0  0  0  0  0  0  0  0  0  0
    6.7695   -2.8939   -1.1856 H   0  0  0  0  0  0  0  0  0  0  0  0
    5.2848   -1.9849   -1.6475 H   0  0  0  0  0  0  0  0  0  0  0  0
    7.9118   -2.1234    0.9398 H   0  0  0  0  0  0  0  0  0  0  0  0
    8.9003   -0.1918    2.0573 H   0  0  0  0  0  0  0  0  0  0  0  0
    5.9828    2.8523   -1.1760 H   0  0  0  0  0  0  0  0  0  0  0  0
    5.1103    2.7712    0.4615 H   0  0  0  0  0  0  0  0  0  0  0  0
    6.7425    3.4304    0.3635 H   0  0  0  0  0  0  0  0  0  0  0  0
    3.7181   -1.0928    0.6055 H   0  0  0  0  0  0  0  0  0  0  0  0
    2.7691    0.4038    0.6707 H   0  0  0  0  0  0  0  0  0  0  0  0
    1.4042   -1.4728    0.8927 H   0  0  0  0  0  0  0  0  0  0  0  0
    2.0440   -2.2655   -0.5510 H   0  0  0  0  0  0  0  0  0  0  0  0
    0.5474   -0.9747   -3.1439 H   0  0  0  0  0  0  0  0  0  0  0  0
    1.0585   -2.3792   -2.1767 H   0  0  0  0  0  0  0  0  0  0  0  0
   -0.6561   -1.8293   -2.1616 H   0  0  0  0  0  0  0  0  0  0  0  0
   -1.3659   -2.2852   -0.3542 H   0  0  0  0  0  0  0  0  0  0  0  0
   -0.5178   -1.9451    1.1535 H   0  0  0  0  0  0  0  0  0  0  0  0
   -2.9918   -1.7768    1.2626 H   0  0  0  0  0  0  0  0  0  0  0  0
   -2.0377   -0.4725    1.9988 H   0  0  0  0  0  0  0  0  0  0  0  0
   -2.7006   -0.0991   -0.8604 H   0  0  0  0  0  0  0  0  0  0  0  0
   -6.9539    0.2729   -0.5058 H   0  0  0  0  0  0  0  0  0  0  0  0
   -8.5416    2.0348   -0.5321 H   0  0  0  0  0  0  0  0  0  0  0  0
   -7.8306    4.3182   -0.0463 H   0  0  0  0  0  0  0  0  0  0  0  0
   -5.4559    4.7616    0.5429 H   0  0  0  0  0  0  0  0  0  0  0  0
   -3.8230    2.9806    0.6649 H   0  0  0  0  0  0  0  0  0  0  0  0
   -6.5891   -0.3426    1.6089 H   0  0  0  0  0  0  0  0  0  0  0  0
   -7.8314   -2.3728    1.5170 H   0  0  0  0  0  0  0  0  0  0  0  0
   -6.9635   -4.3033    0.2159 H   0  0  0  0  0  0  0  0  0  0  0  0
   -3.6127   -1.9569   -0.9633 H   0  0  0  0  0  0  0  0  0  0  0  0
   -2.0365    2.0543   -0.3623 H   0  0  0  0  0  0  0  0  0  0  0  0
   -2.1748    1.8232    1.4911 H   0  0  0  0  0  0  0  0  0  0  0  0
    0.0651    1.6295    0.2280 H   0  0  0  0  0  0  0  0  0  0  0  0
   -0.3573    0.6053    1.6010 H   0  0  0  0  0  0  0  0  0  0  0  0
    1.6416    1.3827   -0.8496 H   0  0  0  0  0  0  0  0  0  0  0  0
    0.6926    1.0494   -2.4104 H   0  0  0  0  0  0  0  0  0  0  0  0
    2.9708    0.9418   -2.9899 H   0  0  0  0  0  0  0  0  0  0  0  0
    2.5157   -0.7951   -2.7653 H   0  0  0  0  0  0  0  0  0  0  0  0
  1  2  1  0
  2  3  2  0
  3  4  1  0
  4  5  2  0
  5  6  1  0
  5  7  1  0
  7  8  1  0
  7  9  2  0
  9 10  1  0
 10 11  2  0
 10 12  1  0
 12 13  1  0
 13 14  1  0
 14 15  1  0
 15 16  1  0
 15 17  1  0
 17 18  1  0
 18 19  1  0
 19 20  1  0
 20 21  1  0
 21 22  1  0
 22 23  2  0
 23 24  1  0
 24 25  2  0
 25 26  1  0
 26 27  2  0
 21 28  1  0
 28 29  2  0
 29 30  1  0
 30 31  2  0
 31 32  1  0
 32 33  2  0
 20 34  1  0
 34 35  1  0
 15 36  1  0
 36 37  1  0
  9  2  1  0
 37 12  1  0
 35 17  1  0
 27 22  1  0
 33 28  1  0
  1 38  1  0
  1 39  1  0
  1 40  1  0
  3 41  1  0
  4 42  1  0
  8 43  1  0
  8 44  1  0
  8 45  1  0
 13 46  1  0
 13 47  1  0
 14 48  1  0
 14 49  1  0
 16 50  1  0
 16 51  1  0
 16 52  1  0
 18 53  1  0
 18 54  1  0
 19 55  1  0
 19 56  1  0
 20 57  1  0
 23 58  1  0
 24 59  1  0
 25 60  1  0
 26 61  1  0
 27 62  1  0
 29 63  1  0
 30 64  1  0
 31 65  1  0
 33 66  1  0
 34 67  1  0
 34 68  1  0
 35 69  1  0
 35 70  1  0
 36 71  1  0
 36 72  1  0
 37 73  1  0
 37 74  1  0
M  CHG  2   5   1   6  -1
M  END
$$$$
