
     RDKit          3D

 42 46  0  0  0  0  0  0  0  0999 V2000
   -0.3231    3.5575   -0.7393 C   0  0  0  0  0  0  0  0  0  0  0  0
    0.0950    2.9511    0.5043 N   0  0  0  0  0  0  0  0  0  0  0  0
    0.4570    3.6590    1.5695 N   0  0  0  0  0  0  0  0  0  0  0  0
    0.7876    2.8204    2.5565 C   0  0  0  0  0  0  0  0  0  0  0  0
    0.6213    1.5737    2.0755 N   0  0  0  0  0  0  0  0  0  0  0  0
    0.1958    1.6697    0.8147 C   0  0  0  0  0  0  0  0  0  0  0  0
   -0.1126    0.5298   -0.0861 C   0  0  2  0  0  0  0  0  0  0  0  0
   -1.5388    0.1745    0.0712 C   0  0  0  0  0  0  0  0  0  0  0  0
   -2.4413    1.0995    0.4452 N   0  0  0  0  0  0  0  0  0  0  0  0
   -3.7212    0.7998    0.5771 N   0  0  0  0  0  0  0  0  0  0  0  0
   -4.2205   -0.4306    0.3532 C   0  0  0  0  0  0  0  0  0  0  0  0
   -5.4525   -0.6256    0.5030 O   0  0  0  0  0  0  0  0  0  0  0  0
   -3.3437   -1.4367   -0.0365 C   0  0  0  0  0  0  0  0  0  0  0  0
   -3.8195   -2.7095   -0.2767 C   0  0  0  0  0  0  0  0  0  0  0  0
   -2.9218   -3.6795   -0.6624 C   0  0  0  0  0  0  0  0  0  0  0  0
   -3.3238   -4.9438   -0.9126 F   0  0  0  0  0  0  0  0  0  0  0  0
   -1.5835   -3.3743   -0.8014 C   0  0  0  0  0  0  0  0  0  0  0  0
   -1.1042   -2.0927   -0.5594 C   0  0  0  0  0  0  0  0  0  0  0  0
   -1.9940   -1.0987   -0.1698 C   0  0  0  0  0  0  0  0  0  0  0  0
    0.2706   -1.7543   -0.6832 N   0  0  0  0  0  0  0  0  0  0  0  0
    0.7275   -0.6654    0.1726 C   0  0  1  0  0  0  0  0  0  0  0  0
    2.1662   -0.4621   -0.0509 C   0  0  0  0  0  0  0  0  0  0  0  0
    2.6838   -0.4291   -1.3265 C   0  0  0  0  0  0  0  0  0  0  0  0
    4.0395   -0.2381   -1.5368 C   0  0  0  0  0  0  0  0  0  0  0  0
    4.9150   -0.0753   -0.4860 C   0  0  0  0  0  0  0  0  0  0  0  0
    6.2578    0.1137   -0.6977 F   0  0  0  0  0  0  0  0  0  0  0  0
    4.4059   -0.1069    0.7934 C   0  0  0  0  0  0  0  0  0  0  0  0
    3.0466   -0.2987    0.9941 C   0  0  0  0  0  0  0  0  0  0  0  0
   -1.0508    4.3871   -0.5126 H   0  0  0  0  0  0  0  0  0  0  0  0
    0.4879    3.9934   -1.3217 H   0  0  0  0  0  0  0  0  0  0  0  0
   -0.8629    2.8359   -1.3916 H   0  0  0  0  0  0  0  0  0  0  0  0
    1.1167    3.1520    3.5279 H   0  0  0  0  0  0  0  0  0  0  0  0
    0.0398    0.8971   -1.1395 H   0  0  0  0  0  0  0  0  0  0  0  0
   -4.3921    1.5668    0.8749 H   0  0  0  0  0  0  0  0  0  0  0  0
   -4.8869   -2.9169   -0.1566 H   0  0  0  0  0  0  0  0  0  0  0  0
   -0.8466   -4.1179   -1.1052 H   0  0  0  0  0  0  0  0  0  0  0  0
    0.8443   -2.2798   -1.3461 H   0  0  0  0  0  0  0  0  0  0  0  0
    0.5525   -0.9797    1.2347 H   0  0  0  0  0  0  0  0  0  0  0  0
    2.0065   -0.5557   -2.1577 H   0  0  0  0  0  0  0  0  0  0  0  0
    4.4399   -0.2129   -2.5322 H   0  0  0  0  0  0  0  0  0  0  0  0
    5.1030    0.0223    1.6160 H   0  0  0  0  0  0  0  0  0  0  0  0
    2.6798   -0.3190    2.0047 H   0  0  0  0  0  0  0  0  0  0  0  0
  1  2  1  0
  2  3  1  0
  3  4  2  0
  4  5  1  0
  5  6  2  0
  6  7  1  0
  7  8  1  0
  8  9  2  0
  9 10  1  0
 10 11  1  0
 11 12  2  0
 11 13  1  0
 13 14  2  0
 14 15  1  0
 15 16  1  0
 15 17  2  0
 17 18  1  0
 18 19  2  0
 18 20  1  0
 20 21  1  0
 21 22  1  0
 22 23  2  0
 23 24  1  0
 24 25  2  0
 25 26  1  0
 25 27  1  0
 27 28  2  0
  6  2  1  0
 21  7  1  0
 28 22  1  0
 19  8  1  0
 19 13  1  0
  1 29  1  0
  1 30  1  0
  1 31  1  0
  4 32  1  0
  7 33  1  6
 10 34  1  0
 14 35  1  0
 17 36  1  0
 20 37  1  0
 21 38  1  1
 23 39  1  0
 24 40  1  0
 27 41  1  0
 28 42  1  0
M  END
$$$$
