
     RDKit          3D

 52 56  0  0  0  0  0  0  0  0999 V2000
   -1.5716    1.9990    1.2837 O   0  0  0  0  0  0  0  0  0  0  0  0
   -1.4197    1.4944    0.1466 C   0  0  0  0  0  0  0  0  0  0  0  0
   -2.5424    1.1364   -0.6451 N   0  0  0  0  0  0  0  0  0  0  0  0
   -3.9108    1.3308   -0.1906 C   0  0  0  0  0  0  0  0  0  0  0  0
   -4.9712    1.7339   -1.1346 C   0  0  0  0  0  0  0  0  0  0  0  0
   -4.9675    0.3437   -0.5243 C   0  0  0  0  0  0  0  0  0  0  0  0
   -6.0865    0.0876    0.3970 C   0  0  0  0  0  0  0  0  0  0  0  0
   -6.6205    1.0566    1.2273 C   0  0  0  0  0  0  0  0  0  0  0  0
   -7.6812    0.7207    2.0673 C   0  0  0  0  0  0  0  0  0  0  0  0
   -8.2092   -0.5624    2.0857 C   0  0  0  0  0  0  0  0  0  0  0  0
   -7.6858   -1.5179    1.2698 C   0  0  0  0  0  0  0  0  0  0  0  0
   -6.6398   -1.1716    0.4470 C   0  0  0  0  0  0  0  0  0  0  0  0
   -0.0971    1.2970   -0.3141 N   0  0  0  0  0  0  0  0  0  0  0  0
    0.2226    0.7253   -1.6039 C   0  0  0  0  0  0  0  0  0  0  0  0
    1.6482    0.2106   -1.5125 C   0  0  0  0  0  0  0  0  0  0  0  0
    1.8393   -0.5407   -0.1952 C   0  0  0  0  0  0  0  0  0  0  0  0
    3.2009   -1.1081   -0.1640 C   0  0  0  0  0  0  0  0  0  0  0  0
    4.3345   -0.4140   -0.1821 N   0  0  0  0  0  0  0  0  0  0  0  0
    5.3912   -1.2774   -0.1420 C   0  0  0  0  0  0  0  0  0  0  0  0
    6.7563   -0.8334   -0.1489 C   0  0  0  0  0  0  0  0  0  0  0  0
    7.7456   -1.6883   -0.5776 C   0  0  0  0  0  0  0  0  0  0  0  0
    9.0783   -1.3075   -0.6033 C   0  0  0  0  0  0  0  0  0  0  0  0
    9.3647   -0.0316   -0.1788 C   0  0  0  0  0  0  0  0  0  0  0  0
    8.4147    0.8166    0.2427 N   0  0  0  0  0  0  0  0  0  0  0  0
    7.1230    0.4231    0.2588 C   0  0  0  0  0  0  0  0  0  0  0  0
    4.8354   -2.4894   -0.1003 N   0  0  0  0  0  0  0  0  0  0  0  0
    3.5236   -2.3636   -0.1144 O   0  0  0  0  0  0  0  0  0  0  0  0
    1.6675    0.3718    0.9903 C   0  0  0  0  0  0  0  0  0  0  0  0
    1.0488    1.6677    0.5051 C   0  0  0  0  0  0  0  0  0  0  0  0
   -2.3340    0.7170   -1.5914 H   0  0  0  0  0  0  0  0  0  0  0  0
   -3.9772    1.7796    0.8218 H   0  0  0  0  0  0  0  0  0  0  0  0
   -5.7640    2.4501   -0.8215 H   0  0  0  0  0  0  0  0  0  0  0  0
   -4.7184    1.8426   -2.2112 H   0  0  0  0  0  0  0  0  0  0  0  0
   -4.6374   -0.5038   -1.1263 H   0  0  0  0  0  0  0  0  0  0  0  0
   -6.1922    2.0441    1.1933 H   0  0  0  0  0  0  0  0  0  0  0  0
   -8.0984    1.4752    2.7151 H   0  0  0  0  0  0  0  0  0  0  0  0
   -9.0410   -0.8079    2.7508 H   0  0  0  0  0  0  0  0  0  0  0  0
   -8.0728   -2.5445    1.2525 H   0  0  0  0  0  0  0  0  0  0  0  0
   -6.2252   -1.9466   -0.2059 H   0  0  0  0  0  0  0  0  0  0  0  0
    0.2051    1.5493   -2.3608 H   0  0  0  0  0  0  0  0  0  0  0  0
   -0.4632   -0.0670   -1.9177 H   0  0  0  0  0  0  0  0  0  0  0  0
    1.8392   -0.5524   -2.3177 H   0  0  0  0  0  0  0  0  0  0  0  0
    2.3775    1.0143   -1.6478 H   0  0  0  0  0  0  0  0  0  0  0  0
    1.0570   -1.3139   -0.1710 H   0  0  0  0  0  0  0  0  0  0  0  0
    7.4752   -2.6788   -0.9013 H   0  0  0  0  0  0  0  0  0  0  0  0
    9.8786   -1.9481   -0.9318 H   0  0  0  0  0  0  0  0  0  0  0  0
   10.3865    0.3398   -0.1700 H   0  0  0  0  0  0  0  0  0  0  0  0
    6.3672    1.1163    0.6008 H   0  0  0  0  0  0  0  0  0  0  0  0
    0.9538   -0.0561    1.7413 H   0  0  0  0  0  0  0  0  0  0  0  0
    2.6564    0.5863    1.4660 H   0  0  0  0  0  0  0  0  0  0  0  0
    1.7933    2.2128   -0.0972 H   0  0  0  0  0  0  0  0  0  0  0  0
    0.7426    2.3279    1.3410 H   0  0  0  0  0  0  0  0  0  0  0  0
  1  2  2  0
  2  3  1  0
  3  4  1  0
  4  5  1  0
  5  6  1  0
  6  7  1  0
  7  8  2  0
  8  9  1  0
  9 10  2  0
 10 11  1  0
 11 12  2  0
  2 13  1  0
 13 14  1  0
 14 15  1  0
 15 16  1  0
 16 17  1  0
 17 18  2  0
 18 19  1  0
 19 20  1  0
 20 21  2  0
 21 22  1  0
 22 23  2  0
 23 24  1  0
 24 25  2  0
 19 26  2  0
 26 27  1  0
 16 28  1  0
 28 29  1  0
  6  4  1  0
 12  7  1  0
 29 13  1  0
 27 17  1  0
 25 20  1  0
  3 30  1  0
  4 31  1  0
  5 32  1  0
  5 33  1  0
  6 34  1  0
  8 35  1  0
  9 36  1  0
 10 37  1  0
 11 38  1  0
 12 39  1  0
 14 40  1  0
 14 41  1  0
 15 42  1  0
 15 43  1  0
 16 44  1  0
 21 45  1  0
 22 46  1  0
 23 47  1  0
 25 48  1  0
 28 49  1  0
 28 50  1  0
 29 51  1  0
 29 52  1  0
M  END
$$$$
