
     RDKit          3D

 54 54  0  0  0  0  0  0  0  0999 V2000
   -4.6080    3.0384    0.1327 C   0  0  2  0  0  0  0  0  0  0  0  0
   -4.9123    3.6612   -1.2357 C   0  0  0  0  0  0  0  0  0  0  0  0
   -3.8329    1.8256   -0.1574 N   0  0  0  0  0  0  0  0  0  0  0  0
   -2.4917    1.8139    0.3222 C   0  0  0  0  0  0  0  0  0  0  0  0
   -1.8875    2.7229    0.9681 O   0  0  0  0  0  0  0  0  0  0  0  0
   -1.6837    0.5749    0.0317 C   0  0  2  0  0  0  0  0  0  0  0  0
   -2.3518   -0.6087    0.6339 C   0  0  0  0  0  0  0  0  0  0  0  0
   -1.6959   -1.9010    0.4450 C   0  0  0  0  0  0  0  0  0  0  0  0
   -1.9037   -2.7765   -0.5999 C   0  0  0  0  0  0  0  0  0  0  0  0
   -1.2134   -3.9740   -0.6590 C   0  0  0  0  0  0  0  0  0  0  0  0
   -0.3094   -4.3055    0.3271 C   0  0  0  0  0  0  0  0  0  0  0  0
   -0.0617   -3.4666    1.3968 C   0  0  0  0  0  0  0  0  0  0  0  0
   -0.7765   -2.2759    1.4156 C   0  0  0  0  0  0  0  0  0  0  0  0
   -0.3497    0.6954    0.5707 N   0  0  0  0  0  0  0  0  0  0  0  0
    0.7549    0.7420   -0.3094 C   0  0  0  0  0  0  0  0  0  0  0  0
    0.7392    0.6907   -1.5599 O   0  0  0  0  0  0  0  0  0  0  0  0
    2.1679    0.8681    0.2233 C   0  0  1  0  0  0  0  0  0  0  0  0
    2.4868   -0.3652    1.4792 S   0  0  0  0  0  0  0  0  0  0  0  0
    3.1244    0.8936   -0.9171 C   0  0  0  0  0  0  0  0  0  0  0  0
    4.5639    1.0263   -0.5954 C   0  0  0  0  0  0  0  0  0  0  0  0
    5.1868   -0.0353    0.2349 C   0  0  0  0  0  0  0  0  0  0  0  0
    5.1074   -1.4195   -0.3672 C   0  0  0  0  0  0  0  0  0  0  0  0
    5.7662   -2.4114    0.5623 C   0  0  0  0  0  0  0  0  0  0  0  0
   -5.8501    2.7518    0.8541 C   0  0  0  0  0  0  0  0  0  0  0  0
   -6.6490    3.8246    1.1734 O   0  0  0  0  0  0  0  0  0  0  0  0
   -6.2431    1.6053    1.2038 O   0  0  0  0  0  0  0  0  0  0  0  0
   -3.9506    3.7305    0.6958 H   0  0  0  0  0  0  0  0  0  0  0  0
   -5.4321    2.9560   -1.8900 H   0  0  0  0  0  0  0  0  0  0  0  0
   -5.5127    4.5808   -1.1309 H   0  0  0  0  0  0  0  0  0  0  0  0
   -3.9569    3.9067   -1.7411 H   0  0  0  0  0  0  0  0  0  0  0  0
   -4.2085    1.0216   -0.6713 H   0  0  0  0  0  0  0  0  0  0  0  0
   -1.5984    0.5371   -1.0683 H   0  0  0  0  0  0  0  0  0  0  0  0
   -2.5358   -0.4031    1.7058 H   0  0  0  0  0  0  0  0  0  0  0  0
   -3.3817   -0.6568    0.1748 H   0  0  0  0  0  0  0  0  0  0  0  0
   -2.6342   -2.4433   -1.3407 H   0  0  0  0  0  0  0  0  0  0  0  0
   -1.4220   -4.6115   -1.5004 H   0  0  0  0  0  0  0  0  0  0  0  0
    0.2157   -5.2652    0.2403 H   0  0  0  0  0  0  0  0  0  0  0  0
    0.6403   -3.7158    2.1696 H   0  0  0  0  0  0  0  0  0  0  0  0
   -0.5648   -1.6301    2.2685 H   0  0  0  0  0  0  0  0  0  0  0  0
   -0.1438    0.7517    1.5950 H   0  0  0  0  0  0  0  0  0  0  0  0
    2.1938    1.8665    0.7152 H   0  0  0  0  0  0  0  0  0  0  0  0
    2.2839   -1.6728    1.0604 H   0  0  0  0  0  0  0  0  0  0  0  0
    2.9309    0.0539   -1.6521 H   0  0  0  0  0  0  0  0  0  0  0  0
    2.8623    1.8058   -1.5372 H   0  0  0  0  0  0  0  0  0  0  0  0
    5.1188    1.2114   -1.5420 H   0  0  0  0  0  0  0  0  0  0  0  0
    4.6752    1.9862   -0.0120 H   0  0  0  0  0  0  0  0  0  0  0  0
    4.9279    0.0296    1.2872 H   0  0  0  0  0  0  0  0  0  0  0  0
    6.3063    0.1974    0.2163 H   0  0  0  0  0  0  0  0  0  0  0  0
    4.1065   -1.7704   -0.6003 H   0  0  0  0  0  0  0  0  0  0  0  0
    5.7098   -1.4692   -1.3201 H   0  0  0  0  0  0  0  0  0  0  0  0
    6.7486   -2.0319    0.9233 H   0  0  0  0  0  0  0  0  0  0  0  0
    5.8635   -3.3677   -0.0013 H   0  0  0  0  0  0  0  0  0  0  0  0
    5.0761   -2.5350    1.4373 H   0  0  0  0  0  0  0  0  0  0  0  0
   -7.3952    3.7427    1.8661 H   0  0  0  0  0  0  0  0  0  0  0  0
  1  2  1  0
  1  3  1  0
  3  4  1  0
  4  5  2  0
  4  6  1  0
  6  7  1  0
  7  8  1  0
  8  9  2  0
  9 10  1  0
 10 11  2  0
 11 12  1  0
 12 13  2  0
  6 14  1  0
 14 15  1  0
 15 16  2  0
 15 17  1  0
 17 18  1  0
 17 19  1  0
 19 20  1  0
 20 21  1  0
 21 22  1  0
 22 23  1  0
  1 24  1  0
 24 25  1  0
 24 26  2  0
 13  8  1  0
  1 27  1  1
  2 28  1  0
  2 29  1  0
  2 30  1  0
  3 31  1  0
  6 32  1  6
  7 33  1  0
  7 34  1  0
  9 35  1  0
 10 36  1  0
 11 37  1  0
 12 38  1  0
 13 39  1  0
 14 40  1  0
 17 41  1  1
 18 42  1  0
 19 43  1  0
 19 44  1  0
 20 45  1  0
 20 46  1  0
 21 47  1  0
 21 48  1  0
 22 49  1  0
 22 50  1  0
 23 51  1  0
 23 52  1  0
 23 53  1  0
 25 54  1  0
M  END
$$$$
