
     RDKit          3D

 56 59  0  0  0  0  0  0  0  0999 V2000
   -7.2282    1.8851   -2.4611 C   0  0  0  0  0  0  0  0  0  0  0  0
   -6.3995    0.8139   -1.8284 C   0  0  0  0  0  0  0  0  0  0  0  0
   -6.9033   -0.4559   -1.6976 C   0  0  0  0  0  0  0  0  0  0  0  0
   -6.1339   -1.4290   -1.1185 C   0  0  0  0  0  0  0  0  0  0  0  0
   -4.8349   -1.1418   -0.6572 C   0  0  0  0  0  0  0  0  0  0  0  0
   -4.0479   -2.2425   -0.1370 C   0  0  0  0  0  0  0  0  0  0  0  0
   -4.6213   -3.3812   -0.0223 O   0  0  0  0  0  0  0  0  0  0  0  0
   -2.7421   -2.1676    0.2388 O   0  0  0  0  0  0  0  0  0  0  0  0
   -4.3179    0.1165   -0.7761 C   0  0  0  0  0  0  0  0  0  0  0  0
   -3.0670    0.4258   -0.3389 O   0  0  0  0  0  0  0  0  0  0  0  0
   -2.6195    0.4776    0.9693 C   0  0  0  0  0  0  0  0  0  0  0  0
   -1.3174    0.7030    1.2622 N   0  0  0  0  0  0  0  0  0  0  0  0
   -0.8794    0.7586    2.5253 C   0  0  0  0  0  0  0  0  0  0  0  0
    0.4589    0.9901    2.8461 O   0  0  0  0  0  0  0  0  0  0  0  0
    1.3793    1.1781    1.7973 C   0  0  0  0  0  0  0  0  0  0  0  0
    2.4608    0.3410    1.6340 C   0  0  0  0  0  0  0  0  0  0  0  0
    3.3880    0.4907    0.6176 C   0  0  0  0  0  0  0  0  0  0  0  0
    4.5038   -0.4333    0.5158 C   0  0  0  0  0  0  0  0  0  0  0  0
    5.0696   -1.0086    1.6318 C   0  0  0  0  0  0  0  0  0  0  0  0
    6.1415   -1.9011    1.5532 C   0  0  0  0  0  0  0  0  0  0  0  0
    6.6223   -2.1927    0.3075 C   0  0  0  0  0  0  0  0  0  0  0  0
    6.0985   -1.6504   -0.8358 C   0  0  0  0  0  0  0  0  0  0  0  0
    6.6790   -2.0215   -2.1529 C   0  0  0  0  0  0  0  0  0  0  0  0
    7.7451   -1.0934   -2.4788 N   0  0  0  0  0  0  0  0  0  0  0  0
    5.0369   -0.7706   -0.7098 C   0  0  0  0  0  0  0  0  0  0  0  0
    3.1818    1.5432   -0.2535 C   0  0  0  0  0  0  0  0  0  0  0  0
    2.1056    2.3868   -0.1016 C   0  0  0  0  0  0  0  0  0  0  0  0
    1.1867    2.2278    0.9165 C   0  0  0  0  0  0  0  0  0  0  0  0
    0.0730    3.1044    1.0701 N   0  0  0  0  0  0  0  0  0  0  0  0
   -1.7520    0.5854    3.6013 C   0  0  0  0  0  0  0  0  0  0  0  0
   -1.2469    0.6520    4.8615 F   0  0  0  0  0  0  0  0  0  0  0  0
   -3.0856    0.3543    3.3507 C   0  0  0  0  0  0  0  0  0  0  0  0
   -3.4862    0.3067    2.0221 C   0  0  0  0  0  0  0  0  0  0  0  0
   -4.7981    0.0991    1.7902 F   0  0  0  0  0  0  0  0  0  0  0  0
   -5.1217    1.0902   -1.3710 C   0  0  0  0  0  0  0  0  0  0  0  0
   -8.2777    1.7353   -2.0949 H   0  0  0  0  0  0  0  0  0  0  0  0
   -6.9085    2.8979   -2.1346 H   0  0  0  0  0  0  0  0  0  0  0  0
   -7.1683    1.7594   -3.5477 H   0  0  0  0  0  0  0  0  0  0  0  0
   -7.9200   -0.6606   -2.0647 H   0  0  0  0  0  0  0  0  0  0  0  0
   -6.5581   -2.4138   -1.0310 H   0  0  0  0  0  0  0  0  0  0  0  0
   -2.2177   -2.9522    0.6543 H   0  0  0  0  0  0  0  0  0  0  0  0
    2.6176   -0.4937    2.3309 H   0  0  0  0  0  0  0  0  0  0  0  0
    4.6595   -0.7512    2.6040 H   0  0  0  0  0  0  0  0  0  0  0  0
    6.5646   -2.3345    2.4315 H   0  0  0  0  0  0  0  0  0  0  0  0
    7.4586   -2.8881    0.2365 H   0  0  0  0  0  0  0  0  0  0  0  0
    5.9030   -1.9550   -2.9336 H   0  0  0  0  0  0  0  0  0  0  0  0
    7.1039   -3.0470   -2.1374 H   0  0  0  0  0  0  0  0  0  0  0  0
    7.4104   -0.1225   -2.5897 H   0  0  0  0  0  0  0  0  0  0  0  0
    8.5249   -1.1514   -1.7986 H   0  0  0  0  0  0  0  0  0  0  0  0
    4.6405   -0.3574   -1.6063 H   0  0  0  0  0  0  0  0  0  0  0  0
    3.8645    1.7062   -1.0555 H   0  0  0  0  0  0  0  0  0  0  0  0
    1.9125    3.2339   -0.7767 H   0  0  0  0  0  0  0  0  0  0  0  0
   -0.2035    3.4732    2.0056 H   0  0  0  0  0  0  0  0  0  0  0  0
   -0.4797    3.3858    0.2316 H   0  0  0  0  0  0  0  0  0  0  0  0
   -3.7705    0.2193    4.1753 H   0  0  0  0  0  0  0  0  0  0  0  0
   -4.6837    2.0757   -1.4529 H   0  0  0  0  0  0  0  0  0  0  0  0
  1  2  1  0
  2  3  2  0
  3  4  1  0
  4  5  2  0
  5  6  1  0
  6  7  2  0
  6  8  1  0
  5  9  1  0
  9 10  1  0
 10 11  1  0
 11 12  2  0
 12 13  1  0
 13 14  1  0
 14 15  1  0
 15 16  2  0
 16 17  1  0
 17 18  1  0
 18 19  2  0
 19 20  1  0
 20 21  2  0
 21 22  1  0
 22 23  1  0
 23 24  1  0
 22 25  2  0
 17 26  2  0
 26 27  1  0
 27 28  2  0
 28 29  1  0
 13 30  2  0
 30 31  1  0
 30 32  1  0
 32 33  2  0
 33 34  1  0
  9 35  2  0
 35  2  1  0
 33 11  1  0
 28 15  1  0
 25 18  1  0
  1 36  1  0
  1 37  1  0
  1 38  1  0
  3 39  1  0
  4 40  1  0
  8 41  1  0
 16 42  1  0
 19 43  1  0
 20 44  1  0
 21 45  1  0
 23 46  1  0
 23 47  1  0
 24 48  1  0
 24 49  1  0
 25 50  1  0
 26 51  1  0
 27 52  1  0
 29 53  1  0
 29 54  1  0
 32 55  1  0
 35 56  1  0
M  END
$$$$
