
     RDKit          3D

 51 54  0  0  0  0  0  0  0  0999 V2000
   -2.5544   -0.3895   -1.1944 O   0  0  0  0  0  0  0  0  0  0  0  0
   -2.2241    0.0714    0.0754 C   0  0  0  0  0  0  0  0  0  0  0  0
   -0.8948    0.7961    0.1069 C   0  0  0  0  0  0  0  0  0  0  0  0
   -0.2671   -0.4897    0.3224 N   0  0  0  0  0  0  0  0  0  0  0  0
   -1.5079   -0.9271    0.9244 C   0  0  0  0  0  0  0  0  0  0  0  0
    1.0475   -0.8315   -0.0364 C   0  0  0  0  0  0  0  0  0  0  0  0
    0.9652    0.3529   -0.4154 O   0  0  0  0  0  0  0  0  0  0  0  0
    1.8720   -2.0176    0.0739 C   0  0  0  0  0  0  0  0  0  0  0  0
    3.1480   -1.9327   -0.4255 C   0  0  0  0  0  0  0  0  0  0  0  0
    3.7395   -0.8034   -1.0429 N   0  0  0  0  0  0  0  0  0  0  0  0
    4.4084    0.3747   -0.6728 C   0  0  0  0  0  0  0  0  0  0  0  0
    5.5717    0.4505    0.0624 C   0  0  0  0  0  0  0  0  0  0  0  0
    6.1506   -0.7014    0.4752 F   0  0  0  0  0  0  0  0  0  0  0  0
    6.2176    1.6117    0.4286 C   0  0  0  0  0  0  0  0  0  0  0  0
    5.6315    2.7854    0.0129 C   0  0  0  0  0  0  0  0  0  0  0  0
    6.5706    4.5930    0.5411 I   0  0  0  0  0  0  0  0  0  0  0  0
    4.4676    2.8115   -0.7266 C   0  0  0  0  0  0  0  0  0  0  0  0
    3.8920    1.5996   -1.0465 C   0  0  0  0  0  0  0  0  0  0  0  0
    3.8996   -3.0915   -0.2984 C   0  0  0  0  0  0  0  0  0  0  0  0
    5.1674   -3.2336   -0.7240 F   0  0  0  0  0  0  0  0  0  0  0  0
    3.3836   -4.2253    0.2873 C   0  0  0  0  0  0  0  0  0  0  0  0
    4.0790   -5.3808    0.4343 F   0  0  0  0  0  0  0  0  0  0  0  0
    2.0890   -4.2164    0.7611 C   0  0  0  0  0  0  0  0  0  0  0  0
    1.2863   -3.1053    0.6691 C   0  0  0  0  0  0  0  0  0  0  0  0
   -3.3634    0.8354    0.7549 C   0  0  2  0  0  0  0  0  0  0  0  0
   -4.4894   -0.1244    0.9216 C   0  0  0  0  0  0  0  0  0  0  0  0
   -5.8585    0.4770    1.0076 C   0  0  0  0  0  0  0  0  0  0  0  0
   -6.0312    1.7829    0.3146 C   0  0  0  0  0  0  0  0  0  0  0  0
   -4.9530    1.9219   -0.7189 C   0  0  0  0  0  0  0  0  0  0  0  0
   -3.6495    1.9512   -0.1045 N   0  0  0  0  0  0  0  0  0  0  0  0
   -1.7335   -0.5152   -1.7347 H   0  0  0  0  0  0  0  0  0  0  0  0
   -0.8191    1.4535    0.9973 H   0  0  0  0  0  0  0  0  0  0  0  0
   -0.6600    1.3304   -0.8225 H   0  0  0  0  0  0  0  0  0  0  0  0
   -1.8004   -1.9750    0.7826 H   0  0  0  0  0  0  0  0  0  0  0  0
   -1.5027   -0.5999    1.9962 H   0  0  0  0  0  0  0  0  0  0  0  0
    3.6573   -0.8564   -2.0825 H   0  0  0  0  0  0  0  0  0  0  0  0
    7.1345    1.5935    1.0109 H   0  0  0  0  0  0  0  0  0  0  0  0
    4.0685    3.7732   -1.0158 H   0  0  0  0  0  0  0  0  0  0  0  0
    2.9744    1.7307   -1.6385 H   0  0  0  0  0  0  0  0  0  0  0  0
    1.6746   -5.1130    1.2268 H   0  0  0  0  0  0  0  0  0  0  0  0
    0.2781   -3.1133    1.0438 H   0  0  0  0  0  0  0  0  0  0  0  0
   -2.9950    1.2243    1.7143 H   0  0  0  0  0  0  0  0  0  0  0  0
   -4.3107   -0.6783    1.8681 H   0  0  0  0  0  0  0  0  0  0  0  0
   -4.4335   -0.9147    0.1209 H   0  0  0  0  0  0  0  0  0  0  0  0
   -6.5557   -0.2631    0.5154 H   0  0  0  0  0  0  0  0  0  0  0  0
   -6.2465    0.5680    2.0507 H   0  0  0  0  0  0  0  0  0  0  0  0
   -6.0173    2.6608    0.9947 H   0  0  0  0  0  0  0  0  0  0  0  0
   -7.0014    1.8159   -0.2373 H   0  0  0  0  0  0  0  0  0  0  0  0
   -5.0809    2.9447   -1.1796 H   0  0  0  0  0  0  0  0  0  0  0  0
   -5.0417    1.1136   -1.4438 H   0  0  0  0  0  0  0  0  0  0  0  0
   -3.3827    2.8752    0.2786 H   0  0  0  0  0  0  0  0  0  0  0  0
  1  2  1  0
  2  3  1  0
  3  4  1  0
  4  5  1  0
  4  6  1  0
  6  7  2  0
  6  8  1  0
  8  9  1  0
  9 10  1  0
 10 11  1  0
 11 12  2  0
 12 13  1  0
 12 14  1  0
 14 15  2  0
 15 16  1  0
 15 17  1  0
 17 18  2  0
  9 19  2  0
 19 20  1  0
 19 21  1  0
 21 22  1  0
 21 23  2  0
 23 24  1  0
  2 25  1  0
 25 26  1  0
 26 27  1  0
 27 28  1  0
 28 29  1  0
 29 30  1  0
  5  2  1  0
 24  8  2  0
 30 25  1  0
 18 11  1  0
  1 31  1  0
  3 32  1  0
  3 33  1  0
  5 34  1  0
  5 35  1  0
 10 36  1  0
 14 37  1  0
 17 38  1  0
 18 39  1  0
 23 40  1  0
 24 41  1  0
 25 42  1  1
 26 43  1  0
 26 44  1  0
 27 45  1  0
 27 46  1  0
 28 47  1  0
 28 48  1  0
 29 49  1  0
 29 50  1  0
 30 51  1  0
M  END
$$$$
