
     RDKit          3D

 56 59  0  0  0  0  0  0  0  0999 V2000
   -3.1998    2.9616   -1.0798 C   0  0  0  0  0  0  0  0  0  0  0  0
   -1.7947    2.7738   -1.4810 C   0  0  0  0  0  0  0  0  0  0  0  0
   -0.9554    1.8163   -0.9484 C   0  0  0  0  0  0  0  0  0  0  0  0
   -1.1340    0.8253    0.0298 C   0  0  0  0  0  0  0  0  0  0  0  0
   -2.2476    0.6574    0.6374 O   0  0  0  0  0  0  0  0  0  0  0  0
   -3.3763    0.4873    1.2533 C   0  0  2  0  0  0  0  0  0  0  0  0
   -3.3649    0.7610    2.7693 C   0  0  0  0  0  0  0  0  0  0  0  0
   -4.0468   -0.8749    1.1290 C   0  0  1  0  0  0  0  0  0  0  0  0
   -4.3776   -1.2625   -0.2742 C   0  0  0  0  0  0  0  0  0  0  0  0
   -4.5779   -2.7074   -0.1408 N   0  0  0  0  0  0  0  0  0  0  0  0
   -3.9254   -3.1717    1.0292 C   0  0  0  0  0  0  0  0  0  0  0  0
   -3.9409   -4.3301    1.5034 O   0  0  0  0  0  0  0  0  0  0  0  0
   -3.2025   -2.0090    1.6054 C   0  0  0  0  0  0  0  0  0  0  0  0
    0.0155    0.0458    0.2738 C   0  0  0  0  0  0  0  0  0  0  0  0
    1.1990    0.1995   -0.3488 C   0  0  0  0  0  0  0  0  0  0  0  0
    2.3474   -0.6643   -0.0278 C   0  0  0  0  0  0  0  0  0  0  0  0
    2.3014   -1.9779    0.3668 C   0  0  0  0  0  0  0  0  0  0  0  0
    3.5859   -2.3816    0.5589 N   0  0  0  0  0  0  0  0  0  0  0  0
    4.4281   -1.3963    0.3067 N   0  0  0  0  0  0  0  0  0  0  0  0
    5.8702   -1.4965    0.4187 C   0  0  0  0  0  0  0  0  0  0  0  0
    6.4970   -1.8498   -0.9008 C   0  0  0  0  0  0  0  0  0  0  0  0
    6.2180   -2.5565    1.4275 C   0  0  0  0  0  0  0  0  0  0  0  0
    6.3823   -0.2151    0.9342 C   0  0  0  0  0  0  0  0  0  0  0  0
    6.7851    0.8045    1.3277 N   0  0  0  0  0  0  0  0  0  0  0  0
    3.6778   -0.3200   -0.0598 C   0  0  0  0  0  0  0  0  0  0  0  0
    1.3127    1.1860   -1.2964 C   0  0  0  0  0  0  0  0  0  0  0  0
    0.2568    1.9826   -1.5943 C   0  0  0  0  0  0  0  0  0  0  0  0
    0.1376    3.0052   -2.4797 N   0  0  0  0  0  0  0  0  0  0  0  0
   -1.0896    3.4782   -2.4117 N   0  0  0  0  0  0  0  0  0  0  0  0
   -1.6254    4.5646   -3.1866 C   0  0  0  0  0  0  0  0  0  0  0  0
   -3.2878    3.2274   -0.0081 H   0  0  0  0  0  0  0  0  0  0  0  0
   -3.5875    3.8569   -1.6362 H   0  0  0  0  0  0  0  0  0  0  0  0
   -3.8627    2.1261   -1.3832 H   0  0  0  0  0  0  0  0  0  0  0  0
   -4.1919    1.1964    0.8941 H   0  0  0  0  0  0  0  0  0  0  0  0
   -2.6841    0.0959    3.3040 H   0  0  0  0  0  0  0  0  0  0  0  0
   -3.1830    1.8362    2.9692 H   0  0  0  0  0  0  0  0  0  0  0  0
   -4.4011    0.5390    3.1251 H   0  0  0  0  0  0  0  0  0  0  0  0
   -4.9649   -0.8309    1.7258 H   0  0  0  0  0  0  0  0  0  0  0  0
   -5.2552   -0.7612   -0.6975 H   0  0  0  0  0  0  0  0  0  0  0  0
   -3.4814   -1.1424   -0.9523 H   0  0  0  0  0  0  0  0  0  0  0  0
   -5.1228   -3.2772   -0.8200 H   0  0  0  0  0  0  0  0  0  0  0  0
   -3.1040   -2.0601    2.7070 H   0  0  0  0  0  0  0  0  0  0  0  0
   -2.1890   -2.0078    1.1087 H   0  0  0  0  0  0  0  0  0  0  0  0
   -0.0915   -0.7262    1.0216 H   0  0  0  0  0  0  0  0  0  0  0  0
    1.3912   -2.5565    0.4918 H   0  0  0  0  0  0  0  0  0  0  0  0
    5.6880   -2.1285   -1.6292 H   0  0  0  0  0  0  0  0  0  0  0  0
    7.1681   -2.7287   -0.8056 H   0  0  0  0  0  0  0  0  0  0  0  0
    7.0997   -1.0225   -1.3238 H   0  0  0  0  0  0  0  0  0  0  0  0
    6.9676   -2.1941    2.1436 H   0  0  0  0  0  0  0  0  0  0  0  0
    6.6223   -3.4505    0.9058 H   0  0  0  0  0  0  0  0  0  0  0  0
    5.2844   -2.8876    1.9575 H   0  0  0  0  0  0  0  0  0  0  0  0
    4.1105    0.6422   -0.3275 H   0  0  0  0  0  0  0  0  0  0  0  0
    2.2383    1.3406   -1.8145 H   0  0  0  0  0  0  0  0  0  0  0  0
   -2.1129    4.1569   -4.1100 H   0  0  0  0  0  0  0  0  0  0  0  0
   -0.8148    5.2659   -3.5312 H   0  0  0  0  0  0  0  0  0  0  0  0
   -2.3916    5.1556   -2.6562 H   0  0  0  0  0  0  0  0  0  0  0  0
  1  2  1  0
  2  3  2  0
  3  4  1  0
  4  5  1  0
  5  6  1  0
  6  7  1  0
  6  8  1  0
  8  9  1  0
  9 10  1  0
 10 11  1  0
 11 12  2  0
 11 13  1  0
  4 14  2  0
 14 15  1  0
 15 16  1  0
 16 17  1  0
 17 18  2  0
 18 19  1  0
 19 20  1  0
 20 21  1  0
 20 22  1  0
 20 23  1  0
 23 24  3  0
 19 25  1  0
 15 26  2  0
 26 27  1  0
 27 28  2  0
 28 29  1  0
 29 30  1  0
 29  2  1  0
 27  3  1  0
 13  8  1  0
 25 16  2  0
  1 31  1  0
  1 32  1  0
  1 33  1  0
  6 34  1  6
  7 35  1  0
  7 36  1  0
  7 37  1  0
  8 38  1  1
  9 39  1  0
  9 40  1  0
 10 41  1  0
 13 42  1  0
 13 43  1  0
 14 44  1  0
 17 45  1  0
 21 46  1  0
 21 47  1  0
 21 48  1  0
 22 49  1  0
 22 50  1  0
 22 51  1  0
 25 52  1  0
 26 53  1  0
 30 54  1  0
 30 55  1  0
 30 56  1  0
M  END
$$$$
