
     RDKit          3D

 44 47  0  0  0  0  0  0  0  0999 V2000
   -2.4561    0.7599   -1.4686 C   0  0  0  0  0  0  0  0  0  0  0  0
   -2.1091    0.6956   -0.0156 C   0  0  2  0  0  0  0  0  0  0  0  0
   -1.3356    1.8383    0.4979 C   0  0  0  0  0  0  0  0  0  0  0  0
    0.1370    1.7115    0.5192 C   0  0  0  0  0  0  0  0  0  0  0  0
    0.6910    0.3365    0.6251 C   0  0  2  0  0  0  0  0  0  0  0  0
    2.1291    0.2932    0.3556 C   0  0  0  0  0  0  0  0  0  0  0  0
    2.9169    1.3428    0.7403 C   0  0  0  0  0  0  0  0  0  0  0  0
    4.2900    1.3341    0.5008 C   0  0  0  0  0  0  0  0  0  0  0  0
    4.8838    0.2695   -0.1280 C   0  0  0  0  0  0  0  0  0  0  0  0
    6.2651    0.2661   -0.3662 O   0  0  0  0  0  0  0  0  0  0  0  0
    4.0953   -0.7884   -0.5168 C   0  0  0  0  0  0  0  0  0  0  0  0
    2.7245   -0.7685   -0.2721 C   0  0  0  0  0  0  0  0  0  0  0  0
    1.9516   -1.9264   -0.7145 C   0  0  0  0  0  0  0  0  0  0  0  0
    0.5591   -2.0226   -0.1591 C   0  0  0  0  0  0  0  0  0  0  0  0
   -0.1088   -0.6680   -0.2021 C   0  0  1  0  0  0  0  0  0  0  0  0
   -1.4602   -0.6421    0.3680 C   0  0  2  0  0  0  0  0  0  0  0  0
   -2.4584   -1.5973   -0.1283 C   0  0  0  0  0  0  0  0  0  0  0  0
   -3.7808   -0.9545    0.3114 C   0  0  0  0  0  0  0  0  0  0  0  0
   -3.4416    0.4698    0.7161 C   0  0  2  0  0  0  0  0  0  0  0  0
   -4.4016    1.3578    0.2211 O   0  0  0  0  0  0  0  0  0  0  0  0
   -1.7301    0.3328   -2.1501 H   0  0  0  0  0  0  0  0  0  0  0  0
   -2.6347    1.8248   -1.7226 H   0  0  0  0  0  0  0  0  0  0  0  0
   -3.4380    0.2465   -1.6920 H   0  0  0  0  0  0  0  0  0  0  0  0
   -1.7396    2.1022    1.5201 H   0  0  0  0  0  0  0  0  0  0  0  0
   -1.5938    2.7455   -0.1245 H   0  0  0  0  0  0  0  0  0  0  0  0
    0.6326    2.2144   -0.3501 H   0  0  0  0  0  0  0  0  0  0  0  0
    0.5089    2.2878    1.4188 H   0  0  0  0  0  0  0  0  0  0  0  0
    0.5520   -0.0028    1.6899 H   0  0  0  0  0  0  0  0  0  0  0  0
    2.5359    2.2102    1.2351 H   0  0  0  0  0  0  0  0  0  0  0  0
    4.9194    2.1633    0.8035 H   0  0  0  0  0  0  0  0  0  0  0  0
    6.5780   -0.2958   -1.1496 H   0  0  0  0  0  0  0  0  0  0  0  0
    4.5691   -1.6273   -1.0132 H   0  0  0  0  0  0  0  0  0  0  0  0
    1.9109   -1.9250   -1.8381 H   0  0  0  0  0  0  0  0  0  0  0  0
    2.4949   -2.8460   -0.3861 H   0  0  0  0  0  0  0  0  0  0  0  0
   -0.0207   -2.6789   -0.8491 H   0  0  0  0  0  0  0  0  0  0  0  0
    0.5624   -2.4610    0.8579 H   0  0  0  0  0  0  0  0  0  0  0  0
   -0.0182   -0.3138   -1.2554 H   0  0  0  0  0  0  0  0  0  0  0  0
   -1.3920   -0.6188    1.4775 H   0  0  0  0  0  0  0  0  0  0  0  0
   -2.3986   -1.6838   -1.2193 H   0  0  0  0  0  0  0  0  0  0  0  0
   -2.3353   -2.5845    0.3914 H   0  0  0  0  0  0  0  0  0  0  0  0
   -4.1365   -1.4595    1.2500 H   0  0  0  0  0  0  0  0  0  0  0  0
   -4.5440   -1.0075   -0.4679 H   0  0  0  0  0  0  0  0  0  0  0  0
   -3.3108    0.5712    1.8087 H   0  0  0  0  0  0  0  0  0  0  0  0
   -5.0632    1.4988    0.9534 H   0  0  0  0  0  0  0  0  0  0  0  0
  2  1  1  6
  2  3  1  0
  3  4  1  0
  4  5  1  0
  5  6  1  0
  6  7  2  0
  7  8  1  0
  8  9  2  0
  9 10  1  0
  9 11  1  0
 11 12  2  0
 12 13  1  0
 13 14  1  0
 14 15  1  0
 15 16  1  0
 16 17  1  0
 17 18  1  0
 18 19  1  0
 19 20  1  0
 16  2  1  0
 19  2  1  0
 15  5  1  0
 12  6  1  0
  1 21  1  0
  1 22  1  0
  1 23  1  0
  3 24  1  0
  3 25  1  0
  4 26  1  0
  4 27  1  0
  5 28  1  1
  7 29  1  0
  8 30  1  0
 10 31  1  0
 11 32  1  0
 13 33  1  0
 13 34  1  0
 14 35  1  0
 14 36  1  0
 15 37  1  6
 16 38  1  1
 17 39  1  0
 17 40  1  0
 18 41  1  0
 18 42  1  0
 19 43  1  1
 20 44  1  0
M  END
$$$$
