
     RDKit          3D

 54 57  0  0  0  0  0  0  0  0999 V2000
   -5.7669   -1.4615   -1.3509 C   0  0  0  0  0  0  0  0  0  0  0  0
   -4.8902   -1.7650   -0.1559 C   0  0  0  0  0  0  0  0  0  0  0  0
   -5.7740   -2.2126    0.9885 C   0  0  0  0  0  0  0  0  0  0  0  0
   -3.9923   -2.7623   -0.5306 O   0  0  0  0  0  0  0  0  0  0  0  0
   -4.1761   -0.5259    0.2334 C   0  0  0  0  0  0  0  0  0  0  0  0
   -4.8801    0.4598    0.5911 O   0  0  0  0  0  0  0  0  0  0  0  0
   -2.7085   -0.4428    0.2061 C   0  0  0  0  0  0  0  0  0  0  0  0
   -1.9051   -1.4026   -0.1425 O   0  0  0  0  0  0  0  0  0  0  0  0
   -0.6437   -1.0423   -0.0701 C   0  0  0  0  0  0  0  0  0  0  0  0
    0.5143   -1.6624   -0.3191 N   0  0  0  0  0  0  0  0  0  0  0  0
    1.6987   -1.0218   -0.1507 C   0  0  0  0  0  0  0  0  0  0  0  0
    2.9409   -1.7161   -0.4284 C   0  0  0  0  0  0  0  0  0  0  0  0
    3.8860   -1.9421    0.5445 C   0  0  0  0  0  0  0  0  0  0  0  0
    5.0414   -2.6085    0.2073 C   0  0  0  0  0  0  0  0  0  0  0  0
    5.2569   -3.0489   -1.0929 C   0  0  0  0  0  0  0  0  0  0  0  0
    4.3116   -2.8221   -2.0625 C   0  0  0  0  0  0  0  0  0  0  0  0
    3.1509   -2.1511   -1.7175 C   0  0  0  0  0  0  0  0  0  0  0  0
    1.9721   -1.8821   -2.9789 Cl  0  0  0  0  0  0  0  0  0  0  0  0
    1.7749    0.2757    0.2771 C   0  0  0  0  0  0  0  0  0  0  0  0
    3.0636    0.8992    0.4369 C   0  0  0  0  0  0  0  0  0  0  0  0
    3.4613    1.3547    1.7021 C   0  0  0  0  0  0  0  0  0  0  0  0
    4.6793    1.9589    1.9271 C   0  0  0  0  0  0  0  0  0  0  0  0
    5.5093    2.0999    0.8314 C   0  0  0  0  0  0  0  0  0  0  0  0
    7.0807    2.8630    1.0465 Cl  0  0  0  0  0  0  0  0  0  0  0  0
    5.1499    1.6643   -0.4225 C   0  0  0  0  0  0  0  0  0  0  0  0
    3.9324    1.0679   -0.6126 C   0  0  0  0  0  0  0  0  0  0  0  0
    0.5908    0.9236    0.5363 C   0  0  0  0  0  0  0  0  0  0  0  0
   -0.6172    0.2617    0.3618 C   0  0  0  0  0  0  0  0  0  0  0  0
   -1.9260    0.6388    0.5358 C   0  0  0  0  0  0  0  0  0  0  0  0
   -2.3447    1.9150    0.9749 N   0  0  0  0  0  0  0  0  0  0  0  0
   -2.5841    2.9030   -0.0303 C   0  0  0  0  0  0  0  0  0  0  0  0
   -2.4239    2.6302   -1.2466 O   0  0  0  0  0  0  0  0  0  0  0  0
   -3.0258    4.2468    0.4440 C   0  0  0  0  0  0  0  0  0  0  0  0
   -3.1993    5.0486   -0.7012 O   0  0  0  0  0  0  0  0  0  0  0  0
   -6.0474   -0.3845   -1.3943 H   0  0  0  0  0  0  0  0  0  0  0  0
   -6.6679   -2.1202   -1.3094 H   0  0  0  0  0  0  0  0  0  0  0  0
   -5.2021   -1.7085   -2.2674 H   0  0  0  0  0  0  0  0  0  0  0  0
   -6.7520   -2.5803    0.6395 H   0  0  0  0  0  0  0  0  0  0  0  0
   -5.9662   -1.3272    1.6218 H   0  0  0  0  0  0  0  0  0  0  0  0
   -5.2160   -2.9476    1.6032 H   0  0  0  0  0  0  0  0  0  0  0  0
   -4.1582   -3.1032   -1.4437 H   0  0  0  0  0  0  0  0  0  0  0  0
    3.7608   -1.6166    1.5726 H   0  0  0  0  0  0  0  0  0  0  0  0
    5.8181   -2.8166    0.9185 H   0  0  0  0  0  0  0  0  0  0  0  0
    6.1769   -3.5790   -1.3593 H   0  0  0  0  0  0  0  0  0  0  0  0
    4.4727   -3.1657   -3.0898 H   0  0  0  0  0  0  0  0  0  0  0  0
    2.8071    1.2436    2.5649 H   0  0  0  0  0  0  0  0  0  0  0  0
    4.9727    2.3061    2.9117 H   0  0  0  0  0  0  0  0  0  0  0  0
    5.7851    1.7656   -1.2914 H   0  0  0  0  0  0  0  0  0  0  0  0
    3.6034    0.7058   -1.5950 H   0  0  0  0  0  0  0  0  0  0  0  0
    0.5954    1.9585    0.8798 H   0  0  0  0  0  0  0  0  0  0  0  0
   -2.4586    2.0791    1.9870 H   0  0  0  0  0  0  0  0  0  0  0  0
   -4.0047    4.2036    0.9345 H   0  0  0  0  0  0  0  0  0  0  0  0
   -2.2196    4.6555    1.0707 H   0  0  0  0  0  0  0  0  0  0  0  0
   -2.4568    5.6907   -0.7855 H   0  0  0  0  0  0  0  0  0  0  0  0
  1  2  1  0
  2  3  1  0
  2  4  1  0
  2  5  1  0
  5  6  2  0
  5  7  1  0
  7  8  1  0
  8  9  1  0
  9 10  2  0
 10 11  1  0
 11 12  1  0
 12 13  2  0
 13 14  1  0
 14 15  2  0
 15 16  1  0
 16 17  2  0
 17 18  1  0
 11 19  2  0
 19 20  1  0
 20 21  2  0
 21 22  1  0
 22 23  2  0
 23 24  1  0
 23 25  1  0
 25 26  2  0
 19 27  1  0
 27 28  2  0
 28 29  1  0
 29 30  1  0
 30 31  1  0
 31 32  2  0
 31 33  1  0
 33 34  1  0
 29  7  2  0
 28  9  1  0
 17 12  1  0
 26 20  1  0
  1 35  1  0
  1 36  1  0
  1 37  1  0
  3 38  1  0
  3 39  1  0
  3 40  1  0
  4 41  1  0
 13 42  1  0
 14 43  1  0
 15 44  1  0
 16 45  1  0
 21 46  1  0
 22 47  1  0
 25 48  1  0
 26 49  1  0
 27 50  1  0
 30 51  1  0
 33 52  1  0
 33 53  1  0
 34 54  1  0
M  END
$$$$
