
     RDKit          3D

 60 64  0  0  0  0  0  0  0  0999 V2000
    8.0752    2.8338   -0.0531 C   0  0  0  0  0  0  0  0  0  0  0  0
    7.5701    1.7867    0.7281 O   0  0  0  0  0  0  0  0  0  0  0  0
    6.5615    0.9359    0.3218 C   0  0  0  0  0  0  0  0  0  0  0  0
    6.1347   -0.0641    1.1633 C   0  0  0  0  0  0  0  0  0  0  0  0
    5.1283   -0.9047    0.7436 C   0  0  0  0  0  0  0  0  0  0  0  0
    4.5305   -0.7771   -0.4980 C   0  0  0  0  0  0  0  0  0  0  0  0
    3.4708   -1.7045   -0.9061 C   0  0  0  0  0  0  0  0  0  0  0  0
    2.1374   -1.3207   -0.4978 N   0  0  0  0  0  0  0  0  0  0  0  0
    1.2477   -0.5687   -1.1697 C   0  0  0  0  0  0  0  0  0  0  0  0
    0.0908   -0.4568   -0.4320 C   0  0  0  0  0  0  0  0  0  0  0  0
    0.2533   -1.1497    0.7245 C   0  0  0  0  0  0  0  0  0  0  0  0
   -0.5746   -1.3528    1.8003 C   0  0  0  0  0  0  0  0  0  0  0  0
   -1.8799   -0.9104    1.9194 N   0  0  0  0  0  0  0  0  0  0  0  0
   -2.7638   -0.4393    0.9133 C   0  0  0  0  0  0  0  0  0  0  0  0
   -3.2509    0.8509    0.8719 C   0  0  0  0  0  0  0  0  0  0  0  0
   -4.1390    1.3411   -0.0448 C   0  0  0  0  0  0  0  0  0  0  0  0
   -4.6481    2.6944   -0.0488 C   0  0  0  0  0  0  0  0  0  0  0  0
   -3.8161    3.7150    0.1849 N   0  0  0  0  0  0  0  0  0  0  0  0
   -4.2016    4.9958    0.1959 C   0  0  0  0  0  0  0  0  0  0  0  0
   -5.5045    5.3329   -0.0386 C   0  0  0  0  0  0  0  0  0  0  0  0
   -6.4118    4.3280   -0.2865 C   0  0  0  0  0  0  0  0  0  0  0  0
   -5.9639    2.9994   -0.2882 C   0  0  0  0  0  0  0  0  0  0  0  0
   -6.8347    2.0099   -0.5311 F   0  0  0  0  0  0  0  0  0  0  0  0
   -4.5697    0.4655   -0.9941 N   0  0  0  0  0  0  0  0  0  0  0  0
   -4.1310   -0.8043   -1.0049 C   0  0  0  0  0  0  0  0  0  0  0  0
   -3.2235   -1.2995   -0.0641 C   0  0  0  0  0  0  0  0  0  0  0  0
   -2.8335   -2.7056   -0.1681 C   0  0  0  0  0  0  0  0  0  0  0  0
   -1.8857   -2.9605   -1.3055 C   0  0  0  0  0  0  0  0  0  0  0  0
   -4.0173   -3.6514   -0.1733 C   0  0  0  0  0  0  0  0  0  0  0  0
   -0.0458   -2.1100    2.8086 N   0  0  0  0  0  0  0  0  0  0  0  0
    1.1967   -2.6203    2.7474 C   0  0  0  0  0  0  0  0  0  0  0  0
    1.9870   -2.4098    1.6838 N   0  0  0  0  0  0  0  0  0  0  0  0
    1.5273   -1.6781    0.6692 C   0  0  0  0  0  0  0  0  0  0  0  0
    4.9869    0.2457   -1.3239 C   0  0  0  0  0  0  0  0  0  0  0  0
    5.9915    1.1009   -0.9309 C   0  0  0  0  0  0  0  0  0  0  0  0
    7.3007    3.3783   -0.6306 H   0  0  0  0  0  0  0  0  0  0  0  0
    8.8687    2.4654   -0.7605 H   0  0  0  0  0  0  0  0  0  0  0  0
    8.5508    3.6237    0.6009 H   0  0  0  0  0  0  0  0  0  0  0  0
    6.5801   -0.2017    2.1574 H   0  0  0  0  0  0  0  0  0  0  0  0
    4.7763   -1.7083    1.4057 H   0  0  0  0  0  0  0  0  0  0  0  0
    3.7323   -2.7065   -0.4674 H   0  0  0  0  0  0  0  0  0  0  0  0
    3.4631   -1.8426   -2.0165 H   0  0  0  0  0  0  0  0  0  0  0  0
    1.4335   -0.1292   -2.1423 H   0  0  0  0  0  0  0  0  0  0  0  0
   -0.7843    0.0781   -0.7076 H   0  0  0  0  0  0  0  0  0  0  0  0
   -2.3096   -0.9121    2.9093 H   0  0  0  0  0  0  0  0  0  0  0  0
   -2.8891    1.5254    1.6371 H   0  0  0  0  0  0  0  0  0  0  0  0
   -3.4881    5.7786    0.3919 H   0  0  0  0  0  0  0  0  0  0  0  0
   -5.8640    6.3667   -0.0377 H   0  0  0  0  0  0  0  0  0  0  0  0
   -7.4486    4.5684   -0.4743 H   0  0  0  0  0  0  0  0  0  0  0  0
   -4.5265   -1.4379   -1.7972 H   0  0  0  0  0  0  0  0  0  0  0  0
   -2.2610   -2.9865    0.7696 H   0  0  0  0  0  0  0  0  0  0  0  0
   -1.8327   -2.0363   -1.9297 H   0  0  0  0  0  0  0  0  0  0  0  0
   -2.2712   -3.7540   -1.9807 H   0  0  0  0  0  0  0  0  0  0  0  0
   -0.8575   -3.1895   -0.9771 H   0  0  0  0  0  0  0  0  0  0  0  0
   -3.6101   -4.6671   -0.3093 H   0  0  0  0  0  0  0  0  0  0  0  0
   -4.7898   -3.3832   -0.9009 H   0  0  0  0  0  0  0  0  0  0  0  0
   -4.4412   -3.6070    0.8588 H   0  0  0  0  0  0  0  0  0  0  0  0
    1.6058   -3.2179    3.5498 H   0  0  0  0  0  0  0  0  0  0  0  0
    4.5457    0.3673   -2.2844 H   0  0  0  0  0  0  0  0  0  0  0  0
    6.3221    1.8806   -1.5932 H   0  0  0  0  0  0  0  0  0  0  0  0
  1  2  1  0
  2  3  1  0
  3  4  2  0
  4  5  1  0
  5  6  2  0
  6  7  1  0
  7  8  1  0
  8  9  1  0
  9 10  2  0
 10 11  1  0
 11 12  2  0
 12 13  1  0
 13 14  1  0
 14 15  2  0
 15 16  1  0
 16 17  1  0
 17 18  2  0
 18 19  1  0
 19 20  2  0
 20 21  1  0
 21 22  2  0
 22 23  1  0
 16 24  2  0
 24 25  1  0
 25 26  2  0
 26 27  1  0
 27 28  1  0
 27 29  1  0
 12 30  1  0
 30 31  2  0
 31 32  1  0
 32 33  2  0
  6 34  1  0
 34 35  2  0
 35  3  1  0
 33  8  1  0
 33 11  1  0
 26 14  1  0
 22 17  1  0
  1 36  1  0
  1 37  1  0
  1 38  1  0
  4 39  1  0
  5 40  1  0
  7 41  1  0
  7 42  1  0
  9 43  1  0
 10 44  1  0
 13 45  1  0
 15 46  1  0
 19 47  1  0
 20 48  1  0
 21 49  1  0
 25 50  1  0
 27 51  1  0
 28 52  1  0
 28 53  1  0
 28 54  1  0
 29 55  1  0
 29 56  1  0
 29 57  1  0
 31 58  1  0
 34 59  1  0
 35 60  1  0
M  END
$$$$
