
     RDKit          3D

 79 84  0  0  0  0  0  0  0  0999 V2000
   -1.5470   -0.0980   -0.5060 C   0  0  0  0  0  0  0  0  0  0  0  0
   -1.6316   -0.4825   -1.9120 C   0  0  0  0  0  0  0  0  0  0  0  0
   -2.8023   -0.2901   -2.5966 C   0  0  0  0  0  0  0  0  0  0  0  0
   -3.9169    0.2460   -1.9142 N   0  0  0  0  0  0  0  0  0  0  0  0
   -4.9060   -0.5759   -1.3193 C   0  0  0  0  0  0  0  0  0  0  0  0
   -4.7170   -1.8240   -1.4542 O   0  0  0  0  0  0  0  0  0  0  0  0
   -6.0750   -0.1187   -0.5966 C   0  0  0  0  0  0  0  0  0  0  0  0
   -7.0400   -1.0369   -0.1553 C   0  0  0  0  0  0  0  0  0  0  0  0
   -8.1527   -0.6545    0.5509 C   0  0  0  0  0  0  0  0  0  0  0  0
   -8.3816    0.6592    0.8659 C   0  0  0  0  0  0  0  0  0  0  0  0
   -9.5660    1.0604    1.6408 C   0  0  0  0  0  0  0  0  0  0  0  0
   -9.2329    0.9430    3.1236 C   0  0  0  0  0  0  0  0  0  0  0  0
  -10.7485    0.2051    1.3084 C   0  0  0  0  0  0  0  0  0  0  0  0
   -9.9221    2.5105    1.4169 C   0  0  0  0  0  0  0  0  0  0  0  0
   -7.4520    1.5862    0.4453 C   0  0  0  0  0  0  0  0  0  0  0  0
   -6.3283    1.1948   -0.2689 C   0  0  0  0  0  0  0  0  0  0  0  0
   -2.8828   -0.6474   -3.9158 C   0  0  0  0  0  0  0  0  0  0  0  0
   -1.8155   -1.2047   -4.5997 C   0  0  0  0  0  0  0  0  0  0  0  0
   -0.6517   -1.3932   -3.9047 C   0  0  0  0  0  0  0  0  0  0  0  0
   -0.5530   -1.0311   -2.5515 C   0  0  0  0  0  0  0  0  0  0  0  0
    0.7151   -1.2814   -1.8870 C   0  0  0  0  0  0  0  0  0  0  0  0
    1.0153   -0.9097   -0.6344 N   0  0  0  0  0  0  0  0  0  0  0  0
    2.1781   -1.1599   -0.0252 C   0  0  0  0  0  0  0  0  0  0  0  0
    2.5019   -0.7663    1.3002 N   0  0  0  0  0  0  0  0  0  0  0  0
    3.7723   -0.1556    1.5466 C   0  0  0  0  0  0  0  0  0  0  0  0
    4.3205   -0.1411    2.8140 C   0  0  0  0  0  0  0  0  0  0  0  0
    5.5572    0.4693    3.0002 C   0  0  0  0  0  0  0  0  0  0  0  0
    6.2421    1.0549    1.9566 C   0  0  0  0  0  0  0  0  0  0  0  0
    7.5315    1.6996    2.1197 C   0  0  0  0  0  0  0  0  0  0  0  0
    7.5744    2.6924    2.9101 O   0  0  0  0  0  0  0  0  0  0  0  0
    8.6843    1.2458    1.4324 N   0  0  0  0  0  0  0  0  0  0  0  0
    9.9275    1.9378    1.6351 C   0  0  0  0  0  0  0  0  0  0  0  0
   11.0348    1.0862    1.0380 C   0  0  0  0  0  0  0  0  0  0  0  0
   10.8636   -0.2533    1.3632 O   0  0  0  0  0  0  0  0  0  0  0  0
    9.7509   -0.8162    0.8072 C   0  0  0  0  0  0  0  0  0  0  0  0
    8.6047    0.1277    0.5506 C   0  0  0  0  0  0  0  0  0  0  0  0
    5.6583    1.0171    0.7157 C   0  0  0  0  0  0  0  0  0  0  0  0
    4.4232    0.4197    0.4761 C   0  0  0  0  0  0  0  0  0  0  0  0
    3.1533   -1.8579   -0.7365 C   0  0  0  0  0  0  0  0  0  0  0  0
    4.3857   -2.2591   -0.4163 N   0  0  0  0  0  0  0  0  0  0  0  0
    4.8793   -2.8953   -1.4831 C   0  0  0  0  0  0  0  0  0  0  0  0
    3.9645   -2.9023   -2.4859 N   0  0  0  0  0  0  0  0  0  0  0  0
    2.8694   -2.2486   -2.0197 C   0  0  0  0  0  0  0  0  0  0  0  0
    1.6869   -1.9566   -2.5474 N   0  0  0  0  0  0  0  0  0  0  0  0
   -2.4816    0.3570   -0.1132 H   0  0  0  0  0  0  0  0  0  0  0  0
   -0.7333    0.6533   -0.4060 H   0  0  0  0  0  0  0  0  0  0  0  0
   -1.2284   -0.9753    0.1016 H   0  0  0  0  0  0  0  0  0  0  0  0
   -4.0133    1.2741   -1.8445 H   0  0  0  0  0  0  0  0  0  0  0  0
   -6.8358   -2.0745   -0.4182 H   0  0  0  0  0  0  0  0  0  0  0  0
   -8.8490   -1.4201    0.8566 H   0  0  0  0  0  0  0  0  0  0  0  0
   -8.5282    1.7273    3.4249 H   0  0  0  0  0  0  0  0  0  0  0  0
   -8.6853   -0.0257    3.2465 H   0  0  0  0  0  0  0  0  0  0  0  0
  -10.1546    0.9148    3.7038 H   0  0  0  0  0  0  0  0  0  0  0  0
  -11.6931    0.7459    1.4614 H   0  0  0  0  0  0  0  0  0  0  0  0
  -10.8019   -0.7408    1.8948 H   0  0  0  0  0  0  0  0  0  0  0  0
  -10.7246   -0.0834    0.2211 H   0  0  0  0  0  0  0  0  0  0  0  0
  -11.0036    2.6205    1.6138 H   0  0  0  0  0  0  0  0  0  0  0  0
   -9.4004    3.1707    2.1550 H   0  0  0  0  0  0  0  0  0  0  0  0
   -9.6276    2.8279    0.4209 H   0  0  0  0  0  0  0  0  0  0  0  0
   -7.6313    2.6330    0.6954 H   0  0  0  0  0  0  0  0  0  0  0  0
   -5.6103    1.9557   -0.5842 H   0  0  0  0  0  0  0  0  0  0  0  0
   -3.8091   -0.4967   -4.4466 H   0  0  0  0  0  0  0  0  0  0  0  0
   -1.8867   -1.4883   -5.6518 H   0  0  0  0  0  0  0  0  0  0  0  0
    0.1948   -1.8281   -4.4245 H   0  0  0  0  0  0  0  0  0  0  0  0
    1.8327   -0.9187    2.0826 H   0  0  0  0  0  0  0  0  0  0  0  0
    3.7914   -0.5971    3.6408 H   0  0  0  0  0  0  0  0  0  0  0  0
    6.0288    0.5070    3.9898 H   0  0  0  0  0  0  0  0  0  0  0  0
   10.1248    2.1497    2.7097 H   0  0  0  0  0  0  0  0  0  0  0  0
    9.8387    2.9208    1.0926 H   0  0  0  0  0  0  0  0  0  0  0  0
   12.0433    1.3856    1.4477 H   0  0  0  0  0  0  0  0  0  0  0  0
   11.0002    1.2402   -0.0659 H   0  0  0  0  0  0  0  0  0  0  0  0
    9.9711   -1.4018   -0.1201 H   0  0  0  0  0  0  0  0  0  0  0  0
    9.3569   -1.5921    1.5264 H   0  0  0  0  0  0  0  0  0  0  0  0
    8.7251    0.5300   -0.5011 H   0  0  0  0  0  0  0  0  0  0  0  0
    7.6310   -0.4184    0.6244 H   0  0  0  0  0  0  0  0  0  0  0  0
    6.1930    1.4796   -0.1231 H   0  0  0  0  0  0  0  0  0  0  0  0
    3.9993    0.4350   -0.5376 H   0  0  0  0  0  0  0  0  0  0  0  0
    5.8791   -3.3282   -1.4990 H   0  0  0  0  0  0  0  0  0  0  0  0
    4.1157   -3.3344   -3.4087 H   0  0  0  0  0  0  0  0  0  0  0  0
  1  2  1  0
  2  3  2  0
  3  4  1  0
  4  5  1  0
  5  6  2  0
  5  7  1  0
  7  8  2  0
  8  9  1  0
  9 10  2  0
 10 11  1  0
 11 12  1  0
 11 13  1  0
 11 14  1  0
 10 15  1  0
 15 16  2  0
  3 17  1  0
 17 18  2  0
 18 19  1  0
 19 20  2  0
 20 21  1  0
 21 22  2  0
 22 23  1  0
 23 24  1  0
 24 25  1  0
 25 26  2  0
 26 27  1  0
 27 28  2  0
 28 29  1  0
 29 30  2  0
 29 31  1  0
 31 32  1  0
 32 33  1  0
 33 34  1  0
 34 35  1  0
 35 36  1  0
 28 37  1  0
 37 38  2  0
 23 39  2  0
 39 40  1  0
 40 41  2  0
 41 42  1  0
 42 43  1  0
 43 44  2  0
 20  2  1  0
 44 21  1  0
 16  7  1  0
 38 25  1  0
 43 39  1  0
 36 31  1  0
  1 45  1  0
  1 46  1  0
  1 47  1  0
  4 48  1  0
  8 49  1  0
  9 50  1  0
 12 51  1  0
 12 52  1  0
 12 53  1  0
 13 54  1  0
 13 55  1  0
 13 56  1  0
 14 57  1  0
 14 58  1  0
 14 59  1  0
 15 60  1  0
 16 61  1  0
 17 62  1  0
 18 63  1  0
 19 64  1  0
 24 65  1  0
 26 66  1  0
 27 67  1  0
 32 68  1  0
 32 69  1  0
 33 70  1  0
 33 71  1  0
 35 72  1  0
 35 73  1  0
 36 74  1  0
 36 75  1  0
 37 76  1  0
 38 77  1  0
 41 78  1  0
 42 79  1  0
M  END
$$$$
