
     RDKit          3D

 52 55  0  0  0  0  0  0  0  0999 V2000
   -4.6490    3.4390   -0.2686 N   0  0  0  0  0  0  0  0  0  0  0  0
   -3.7023    2.4700   -0.7112 C   0  0  0  0  0  0  0  0  0  0  0  0
   -3.2380    2.6644   -1.8790 O   0  0  0  0  0  0  0  0  0  0  0  0
   -3.2552    1.3101    0.0862 C   0  0  0  0  0  0  0  0  0  0  0  0
   -2.2079    0.6339   -0.6438 N   0  0  0  0  0  0  0  0  0  0  0  0
   -0.9111    0.5886   -0.1000 C   0  0  0  0  0  0  0  0  0  0  0  0
   -0.7056    1.1414    1.0098 O   0  0  0  0  0  0  0  0  0  0  0  0
    0.2298   -0.0758   -0.7630 C   0  0  0  0  0  0  0  0  0  0  0  0
   -0.1454   -0.6695   -2.0313 N   0  0  0  0  0  0  0  0  0  0  0  0
    1.2862    0.9561   -1.0318 C   0  0  0  0  0  0  0  0  0  0  0  0
    2.5447    0.3586   -1.6146 C   0  0  0  0  0  0  0  0  0  0  0  0
    2.9011   -0.8888   -0.9960 N   0  0  0  0  0  0  0  0  0  0  0  0
    4.2470   -1.1629   -0.6955 C   0  0  0  0  0  0  0  0  0  0  0  0
    4.9228   -2.2008   -1.2692 N   0  0  0  0  0  0  0  0  0  0  0  0
    6.2056   -2.4399   -0.9725 C   0  0  0  0  0  0  0  0  0  0  0  0
    6.8757   -1.6750   -0.1054 N   0  0  0  0  0  0  0  0  0  0  0  0
    6.2778   -0.6180    0.5135 C   0  0  0  0  0  0  0  0  0  0  0  0
    6.7014    0.2887    1.4030 N   0  0  0  0  0  0  0  0  0  0  0  0
    5.6708    1.1006    1.6630 C   0  0  0  0  0  0  0  0  0  0  0  0
    4.5733    0.7092    0.9307 C   0  0  0  0  0  0  0  0  0  0  0  0
    4.9577   -0.3836    0.1990 C   0  0  0  0  0  0  0  0  0  0  0  0
    1.8895   -1.8628   -0.6791 C   0  0  0  0  0  0  0  0  0  0  0  0
    0.7962   -1.1498    0.1151 C   0  0  0  0  0  0  0  0  0  0  0  0
   -4.3814    0.4216    0.3847 C   0  0  0  0  0  0  0  0  0  0  0  0
   -4.0901   -0.8158    0.9536 C   0  0  0  0  0  0  0  0  0  0  0  0
   -5.0824   -1.7228    1.2618 C   0  0  0  0  0  0  0  0  0  0  0  0
   -6.3987   -1.4102    1.0060 C   0  0  0  0  0  0  0  0  0  0  0  0
   -7.6984   -2.5450    1.3865 Cl  0  0  0  0  0  0  0  0  0  0  0  0
   -6.7150   -0.2088    0.4504 C   0  0  0  0  0  0  0  0  0  0  0  0
   -5.6918    0.6998    0.1442 C   0  0  0  0  0  0  0  0  0  0  0  0
   -4.7409    3.7161    0.7437 H   0  0  0  0  0  0  0  0  0  0  0  0
   -5.2966    3.9194   -0.9317 H   0  0  0  0  0  0  0  0  0  0  0  0
   -2.8371    1.7206    1.0372 H   0  0  0  0  0  0  0  0  0  0  0  0
   -2.4193    0.1931   -1.5515 H   0  0  0  0  0  0  0  0  0  0  0  0
   -0.5915   -1.6030   -1.9231 H   0  0  0  0  0  0  0  0  0  0  0  0
   -0.6607   -0.0276   -2.6542 H   0  0  0  0  0  0  0  0  0  0  0  0
    0.8689    1.6389   -1.8270 H   0  0  0  0  0  0  0  0  0  0  0  0
    1.5120    1.6102   -0.1751 H   0  0  0  0  0  0  0  0  0  0  0  0
    2.4775    0.2497   -2.7197 H   0  0  0  0  0  0  0  0  0  0  0  0
    3.3660    1.0829   -1.4458 H   0  0  0  0  0  0  0  0  0  0  0  0
    6.7051   -3.2621   -1.4407 H   0  0  0  0  0  0  0  0  0  0  0  0
    7.6824    0.3255    1.8060 H   0  0  0  0  0  0  0  0  0  0  0  0
    5.7533    1.9366    2.3660 H   0  0  0  0  0  0  0  0  0  0  0  0
    3.5932    1.1662    0.9272 H   0  0  0  0  0  0  0  0  0  0  0  0
    1.4354   -2.1928   -1.6461 H   0  0  0  0  0  0  0  0  0  0  0  0
    2.3040   -2.7044   -0.0928 H   0  0  0  0  0  0  0  0  0  0  0  0
    1.2849   -0.6814    0.9997 H   0  0  0  0  0  0  0  0  0  0  0  0
    0.0631   -1.9196    0.3994 H   0  0  0  0  0  0  0  0  0  0  0  0
   -3.0726   -1.1073    1.1733 H   0  0  0  0  0  0  0  0  0  0  0  0
   -4.8507   -2.6803    1.7027 H   0  0  0  0  0  0  0  0  0  0  0  0
   -7.7568    0.0450    0.2452 H   0  0  0  0  0  0  0  0  0  0  0  0
   -6.0268    1.6219   -0.2970 H   0  0  0  0  0  0  0  0  0  0  0  0
  1  2  1  0
  2  3  2  0
  2  4  1  0
  4  5  1  0
  5  6  1  0
  6  7  2  0
  6  8  1  0
  8  9  1  0
  8 10  1  0
 10 11  1  0
 11 12  1  0
 12 13  1  0
 13 14  2  0
 14 15  1  0
 15 16  2  0
 16 17  1  0
 17 18  1  0
 18 19  1  0
 19 20  2  0
 20 21  1  0
 12 22  1  0
 22 23  1  0
  4 24  1  0
 24 25  2  0
 25 26  1  0
 26 27  2  0
 27 28  1  0
 27 29  1  0
 29 30  2  0
 23  8  1  0
 30 24  1  0
 21 13  1  0
 21 17  2  0
  1 31  1  0
  1 32  1  0
  4 33  1  0
  5 34  1  0
  9 35  1  0
  9 36  1  0
 10 37  1  0
 10 38  1  0
 11 39  1  0
 11 40  1  0
 15 41  1  0
 18 42  1  0
 19 43  1  0
 20 44  1  0
 22 45  1  0
 22 46  1  0
 23 47  1  0
 23 48  1  0
 25 49  1  0
 26 50  1  0
 29 51  1  0
 30 52  1  0
M  END
$$$$
