
     RDKit          3D

 33 34  0  0  0  0  0  0  0  0999 V2000
    4.3820    0.6820    0.2686 C   0  0  0  0  0  0  0  0  0  0  0  0
    3.0771    0.3689   -0.4170 C   0  0  0  0  0  0  0  0  0  0  0  0
    1.9782    0.1543    0.3862 C   0  0  0  0  0  0  0  0  0  0  0  0
    2.1248    0.2391    1.8688 C   0  0  0  0  0  0  0  0  0  0  0  0
    0.7723   -0.1324   -0.1731 C   0  0  0  0  0  0  0  0  0  0  0  0
   -0.3198   -0.3426    0.7020 N   0  0  0  0  0  0  0  0  0  0  0  0
   -1.6916   -0.6201    0.5513 C   0  0  0  0  0  0  0  0  0  0  0  0
   -2.2141   -1.8337    1.0191 C   0  0  0  0  0  0  0  0  0  0  0  0
   -3.5341   -2.2567    0.9533 C   0  0  0  0  0  0  0  0  0  0  0  0
   -4.3863   -1.3553    0.3564 C   0  0  0  0  0  0  0  0  0  0  0  0
   -3.9599   -0.1436   -0.1289 C   0  0  0  0  0  0  0  0  0  0  0  0
   -2.6321    0.2040   -0.0251 C   0  0  0  0  0  0  0  0  0  0  0  0
   -2.2399    1.5192   -0.5114 C   0  0  0  0  0  0  0  0  0  0  0  0
   -3.1340    2.3811   -1.1216 O   0  0  0  0  0  0  0  0  0  0  0  0
   -1.1493    2.1373   -0.5104 O   0  0  0  0  0  0  0  0  0  0  0  0
    0.7256   -0.1913   -1.5411 C   0  0  0  0  0  0  0  0  0  0  0  0
    1.7873    0.0133   -2.3951 C   0  0  0  0  0  0  0  0  0  0  0  0
    2.9958    0.3020   -1.7961 C   0  0  0  0  0  0  0  0  0  0  0  0
    5.0530    1.0851   -0.5171 H   0  0  0  0  0  0  0  0  0  0  0  0
    4.2508    1.5338    0.9980 H   0  0  0  0  0  0  0  0  0  0  0  0
    4.8357   -0.2113    0.7256 H   0  0  0  0  0  0  0  0  0  0  0  0
    1.6077    1.0914    2.3204 H   0  0  0  0  0  0  0  0  0  0  0  0
    3.1886    0.2517    2.1758 H   0  0  0  0  0  0  0  0  0  0  0  0
    1.7004   -0.6879    2.3510 H   0  0  0  0  0  0  0  0  0  0  0  0
   -0.2044   -0.3053    1.7307 H   0  0  0  0  0  0  0  0  0  0  0  0
   -1.5015   -2.5068    1.4802 H   0  0  0  0  0  0  0  0  0  0  0  0
   -3.7858   -3.2246    1.3596 H   0  0  0  0  0  0  0  0  0  0  0  0
   -5.4321   -1.6465    0.2829 H   0  0  0  0  0  0  0  0  0  0  0  0
   -4.6846    0.5275   -0.5914 H   0  0  0  0  0  0  0  0  0  0  0  0
   -2.9309    2.9613   -1.9252 H   0  0  0  0  0  0  0  0  0  0  0  0
   -0.2264   -0.4184   -2.0051 H   0  0  0  0  0  0  0  0  0  0  0  0
    1.6689   -0.0511   -3.4729 H   0  0  0  0  0  0  0  0  0  0  0  0
    3.8785    0.4759   -2.3984 H   0  0  0  0  0  0  0  0  0  0  0  0
  1  2  1  0
  2  3  2  0
  3  4  1  0
  3  5  1  0
  5  6  1  0
  6  7  1  0
  7  8  2  0
  8  9  1  0
  9 10  2  0
 10 11  1  0
 11 12  2  0
 12 13  1  0
 13 14  1  0
 13 15  2  0
  5 16  2  0
 16 17  1  0
 17 18  2  0
 18  2  1  0
 12  7  1  0
  1 19  1  0
  1 20  1  0
  1 21  1  0
  4 22  1  0
  4 23  1  0
  4 24  1  0
  6 25  1  0
  8 26  1  0
  9 27  1  0
 10 28  1  0
 11 29  1  0
 14 30  1  0
 16 31  1  0
 17 32  1  0
 18 33  1  0
M  END
$$$$
