
     RDKit          3D

 42 44  0  0  0  0  0  0  0  0999 V2000
    0.1996   -0.9192    1.4042 C   0  0  0  0  0  0  0  0  0  0  0  0
    0.3327   -1.4099    0.0149 C   0  0  0  0  0  0  0  0  0  0  0  0
   -0.5991   -1.4774   -0.9645 C   0  0  0  0  0  0  0  0  0  0  0  0
   -1.9826   -1.0394   -0.9689 C   0  0  0  0  0  0  0  0  0  0  0  0
   -2.6828   -1.4216   -1.9764 O   0  0  0  0  0  0  0  0  0  0  0  0
   -2.6067   -0.2569   -0.0022 N   0  0  0  0  0  0  0  0  0  0  0  0
   -3.9978    0.1254   -0.0914 C   0  0  0  0  0  0  0  0  0  0  0  0
   -4.9320   -0.1584   -1.0405 C   0  0  0  0  0  0  0  0  0  0  0  0
   -6.1380    0.4562   -0.6519 C   0  0  0  0  0  0  0  0  0  0  0  0
   -5.8918    1.0844    0.5087 N   0  0  0  0  0  0  0  0  0  0  0  0
   -6.8870    1.8531    1.2595 C   0  0  0  0  0  0  0  0  0  0  0  0
   -4.6349    0.8941    0.8444 N   0  0  0  0  0  0  0  0  0  0  0  0
    0.0114   -2.0387   -2.0618 N   0  0  0  0  0  0  0  0  0  0  0  0
    1.2586   -2.2893   -1.7342 C   0  0  0  0  0  0  0  0  0  0  0  0
    1.4862   -1.9182   -0.4783 N   0  0  0  0  0  0  0  0  0  0  0  0
    2.7785   -2.0581    0.1676 C   0  0  0  0  0  0  0  0  0  0  0  0
    3.5483   -0.8059   -0.1282 C   0  0  0  0  0  0  0  0  0  0  0  0
    4.3128   -0.7132   -1.2913 C   0  0  0  0  0  0  0  0  0  0  0  0
    5.0465    0.4020   -1.6268 C   0  0  0  0  0  0  0  0  0  0  0  0
    5.0174    1.4775   -0.7612 C   0  0  0  0  0  0  0  0  0  0  0  0
    4.2834    1.4427    0.3969 C   0  0  0  0  0  0  0  0  0  0  0  0
    4.2137    2.5592    1.3592 C   0  0  0  0  0  0  0  0  0  0  0  0
    2.8932    2.6759    1.7856 F   0  0  0  0  0  0  0  0  0  0  0  0
    5.0026    2.2241    2.4414 F   0  0  0  0  0  0  0  0  0  0  0  0
    4.6742    3.7397    0.8491 F   0  0  0  0  0  0  0  0  0  0  0  0
    3.5494    0.2900    0.7043 C   0  0  0  0  0  0  0  0  0  0  0  0
   -0.6769   -1.3387    1.9093 H   0  0  0  0  0  0  0  0  0  0  0  0
    0.1572    0.1793    1.4384 H   0  0  0  0  0  0  0  0  0  0  0  0
    1.1359   -1.1724    2.0013 H   0  0  0  0  0  0  0  0  0  0  0  0
   -2.0453    0.0781    0.8117 H   0  0  0  0  0  0  0  0  0  0  0  0
   -4.8035   -0.7403   -1.9312 H   0  0  0  0  0  0  0  0  0  0  0  0
   -7.0716    0.4185   -1.1958 H   0  0  0  0  0  0  0  0  0  0  0  0
   -6.3910    2.5786    1.9376 H   0  0  0  0  0  0  0  0  0  0  0  0
   -7.5011    1.1842    1.9018 H   0  0  0  0  0  0  0  0  0  0  0  0
   -7.5406    2.4433    0.5831 H   0  0  0  0  0  0  0  0  0  0  0  0
    1.9607   -2.7458   -2.4549 H   0  0  0  0  0  0  0  0  0  0  0  0
    2.6935   -2.1786    1.2503 H   0  0  0  0  0  0  0  0  0  0  0  0
    3.3138   -2.9376   -0.2729 H   0  0  0  0  0  0  0  0  0  0  0  0
    4.3091   -1.5715   -1.9385 H   0  0  0  0  0  0  0  0  0  0  0  0
    5.6374    0.4352   -2.5550 H   0  0  0  0  0  0  0  0  0  0  0  0
    5.5890    2.3827   -0.9949 H   0  0  0  0  0  0  0  0  0  0  0  0
    2.9777    0.2671    1.6134 H   0  0  0  0  0  0  0  0  0  0  0  0
  1  2  1  0
  2  3  2  0
  3  4  1  0
  4  5  2  0
  4  6  1  0
  6  7  1  0
  7  8  1  0
  8  9  2  0
  9 10  1  0
 10 11  1  0
 10 12  1  0
  3 13  1  0
 13 14  2  0
 14 15  1  0
 15 16  1  0
 16 17  1  0
 17 18  2  0
 18 19  1  0
 19 20  2  0
 20 21  1  0
 21 22  1  0
 22 23  1  0
 22 24  1  0
 22 25  1  0
 21 26  2  0
 15  2  1  0
 26 17  1  0
 12  7  2  0
  1 27  1  0
  1 28  1  0
  1 29  1  0
  6 30  1  0
  8 31  1  0
  9 32  1  0
 11 33  1  0
 11 34  1  0
 11 35  1  0
 14 36  1  0
 16 37  1  0
 16 38  1  0
 18 39  1  0
 19 40  1  0
 20 41  1  0
 26 42  1  0
M  END
$$$$
