
     RDKit          3D

 83 89  0  0  0  0  0  0  0  0999 V2000
   -8.3320    5.5777    1.9619 C   0  0  0  0  0  0  0  0  0  0  0  0
   -7.8460    4.3078    1.3206 C   0  0  0  0  0  0  0  0  0  0  0  0
   -7.2501    3.3471    2.1107 C   0  0  0  0  0  0  0  0  0  0  0  0
   -6.8057    2.1931    1.5393 C   0  0  0  0  0  0  0  0  0  0  0  0
   -6.9191    1.9221    0.1858 C   0  0  0  0  0  0  0  0  0  0  0  0
   -6.4278    0.6827   -0.3615 N   0  0  0  0  0  0  0  0  0  0  0  0
   -7.1489   -0.3134   -0.8565 N   0  0  0  0  0  0  0  0  0  0  0  0
   -6.3411   -1.2913   -1.2681 C   0  0  0  0  0  0  0  0  0  0  0  0
   -6.7794   -2.5862   -1.8873 C   0  0  0  0  0  0  0  0  0  0  0  0
   -8.2928   -2.6004   -1.9745 C   0  0  0  0  0  0  0  0  0  0  0  0
   -6.3866   -3.7547   -1.0082 C   0  0  0  0  0  0  0  0  0  0  0  0
   -6.2309   -2.7270   -3.2820 C   0  0  0  0  0  0  0  0  0  0  0  0
   -5.0462   -0.8841   -1.0168 C   0  0  0  0  0  0  0  0  0  0  0  0
   -5.1126    0.3584   -0.4467 C   0  0  0  0  0  0  0  0  0  0  0  0
   -4.0488    1.1890   -0.0137 N   0  0  0  0  0  0  0  0  0  0  0  0
   -2.6831    0.8608   -0.1085 C   0  0  0  0  0  0  0  0  0  0  0  0
   -2.3479   -0.2226   -0.5985 O   0  0  0  0  0  0  0  0  0  0  0  0
   -1.6418    1.7294    0.3397 N   0  0  0  0  0  0  0  0  0  0  0  0
   -0.2728    1.3881    0.2358 C   0  0  0  0  0  0  0  0  0  0  0  0
    0.4257    1.7270   -0.9022 C   0  0  0  0  0  0  0  0  0  0  0  0
    1.7584    1.4287   -1.0712 C   0  0  0  0  0  0  0  0  0  0  0  0
    2.4635    0.7544   -0.0671 C   0  0  0  0  0  0  0  0  0  0  0  0
    3.7997    0.4629   -0.2505 O   0  0  0  0  0  0  0  0  0  0  0  0
    4.2021   -0.8585   -0.3665 C   0  0  0  0  0  0  0  0  0  0  0  0
    3.2602   -1.8597   -0.3815 C   0  0  0  0  0  0  0  0  0  0  0  0
    3.7315   -3.1505   -0.5035 C   0  0  0  0  0  0  0  0  0  0  0  0
    5.0411   -3.4100   -0.6026 N   0  0  0  0  0  0  0  0  0  0  0  0
    5.9869   -2.4166   -0.5890 C   0  0  0  0  0  0  0  0  0  0  0  0
    7.3460   -2.7787   -0.6932 N   0  0  0  0  0  0  0  0  0  0  0  0
    8.4558   -1.9182   -0.7391 C   0  0  0  0  0  0  0  0  0  0  0  0
    9.7458   -2.4453   -0.7278 C   0  0  0  0  0  0  0  0  0  0  0  0
   10.8226   -1.6244   -0.7806 C   0  0  0  0  0  0  0  0  0  0  0  0
   10.7157   -0.2558   -0.8467 C   0  0  0  0  0  0  0  0  0  0  0  0
    9.4420    0.2647   -0.8578 C   0  0  0  0  0  0  0  0  0  0  0  0
    9.6065    1.6330   -0.9272 C   0  0  0  0  0  0  0  0  0  0  0  0
   10.9145    1.8635   -0.9536 N   0  0  0  0  0  0  0  0  0  0  0  0
   11.6109    0.7317   -0.9058 N   0  0  0  0  0  0  0  0  0  0  0  0
   13.0566    0.5812   -0.9151 C   0  0  0  0  0  0  0  0  0  0  0  0
    8.3146   -0.5621   -0.8043 C   0  0  0  0  0  0  0  0  0  0  0  0
    5.5077   -1.1803   -0.4701 N   0  0  0  0  0  0  0  0  0  0  0  0
    1.7737    0.4125    1.0763 C   0  0  0  0  0  0  0  0  0  0  0  0
    2.4343   -0.2374    2.1162 C   0  0  0  0  0  0  0  0  0  0  0  0
    1.7289   -0.5494    3.2510 C   0  0  0  0  0  0  0  0  0  0  0  0
    0.4023   -0.2494    3.4077 C   0  0  0  0  0  0  0  0  0  0  0  0
   -0.2265    0.3940    2.3667 C   0  0  0  0  0  0  0  0  0  0  0  0
    0.4363    0.7268    1.2134 C   0  0  0  0  0  0  0  0  0  0  0  0
   -7.5158    2.8862   -0.5995 C   0  0  0  0  0  0  0  0  0  0  0  0
   -7.9756    4.0720   -0.0301 C   0  0  0  0  0  0  0  0  0  0  0  0
   -8.7219    5.3342    2.9746 H   0  0  0  0  0  0  0  0  0  0  0  0
   -9.1666    6.0282    1.3966 H   0  0  0  0  0  0  0  0  0  0  0  0
   -7.4863    6.2996    2.0908 H   0  0  0  0  0  0  0  0  0  0  0  0
   -7.1512    3.5408    3.1779 H   0  0  0  0  0  0  0  0  0  0  0  0
   -6.3323    1.4358    2.1818 H   0  0  0  0  0  0  0  0  0  0  0  0
   -8.5917   -3.4836   -2.6040 H   0  0  0  0  0  0  0  0  0  0  0  0
   -8.7322   -2.7930   -0.9706 H   0  0  0  0  0  0  0  0  0  0  0  0
   -8.7083   -1.6562   -2.3814 H   0  0  0  0  0  0  0  0  0  0  0  0
   -5.3575   -4.0872   -1.1783 H   0  0  0  0  0  0  0  0  0  0  0  0
   -6.4977   -3.5046    0.0667 H   0  0  0  0  0  0  0  0  0  0  0  0
   -7.0912   -4.6133   -1.1994 H   0  0  0  0  0  0  0  0  0  0  0  0
   -5.1961   -3.1293   -3.2923 H   0  0  0  0  0  0  0  0  0  0  0  0
   -6.3178   -1.7536   -3.8052 H   0  0  0  0  0  0  0  0  0  0  0  0
   -6.8829   -3.4444   -3.8509 H   0  0  0  0  0  0  0  0  0  0  0  0
   -4.1940   -1.4686   -1.2447 H   0  0  0  0  0  0  0  0  0  0  0  0
   -4.2634    2.1380    0.4191 H   0  0  0  0  0  0  0  0  0  0  0  0
   -1.9311    2.6407    0.7538 H   0  0  0  0  0  0  0  0  0  0  0  0
   -0.1314    2.2548   -1.6857 H   0  0  0  0  0  0  0  0  0  0  0  0
    2.3193    1.6875   -1.9559 H   0  0  0  0  0  0  0  0  0  0  0  0
    2.2020   -1.6701   -0.3135 H   0  0  0  0  0  0  0  0  0  0  0  0
    2.9946   -3.9582   -0.5167 H   0  0  0  0  0  0  0  0  0  0  0  0
    7.5371   -3.8314   -0.7422 H   0  0  0  0  0  0  0  0  0  0  0  0
    9.8483   -3.5106   -0.6766 H   0  0  0  0  0  0  0  0  0  0  0  0
   11.8367   -2.0554   -0.7711 H   0  0  0  0  0  0  0  0  0  0  0  0
    8.7892    2.3382   -0.9527 H   0  0  0  0  0  0  0  0  0  0  0  0
   13.3068   -0.2616   -1.6080 H   0  0  0  0  0  0  0  0  0  0  0  0
   13.5255    1.5197   -1.3011 H   0  0  0  0  0  0  0  0  0  0  0  0
   13.4382    0.3368    0.1168 H   0  0  0  0  0  0  0  0  0  0  0  0
    7.3790   -0.0456   -0.8233 H   0  0  0  0  0  0  0  0  0  0  0  0
    3.4947   -0.4967    2.0693 H   0  0  0  0  0  0  0  0  0  0  0  0
    2.2203   -1.0629    4.0901 H   0  0  0  0  0  0  0  0  0  0  0  0
   -0.1413   -0.5102    4.3264 H   0  0  0  0  0  0  0  0  0  0  0  0
   -1.2849    0.6444    2.4671 H   0  0  0  0  0  0  0  0  0  0  0  0
   -7.6228    2.7047   -1.6790 H   0  0  0  0  0  0  0  0  0  0  0  0
   -8.4407    4.8144   -0.6668 H   0  0  0  0  0  0  0  0  0  0  0  0
  1  2  1  0
  2  3  2  0
  3  4  1  0
  4  5  2  0
  5  6  1  0
  6  7  1  0
  7  8  2  0
  8  9  1  0
  9 10  1  0
  9 11  1  0
  9 12  1  0
  8 13  1  0
 13 14  2  0
 14 15  1  0
 15 16  1  0
 16 17  2  0
 16 18  1  0
 18 19  1  0
 19 20  2  0
 20 21  1  0
 21 22  2  0
 22 23  1  0
 23 24  1  0
 24 25  2  0
 25 26  1  0
 26 27  2  0
 27 28  1  0
 28 29  1  0
 29 30  1  0
 30 31  2  0
 31 32  1  0
 32 33  2  0
 33 34  1  0
 34 35  1  0
 35 36  2  0
 36 37  1  0
 37 38  1  0
 34 39  2  0
 28 40  2  0
 22 41  1  0
 41 42  2  0
 42 43  1  0
 43 44  2  0
 44 45  1  0
 45 46  2  0
  5 47  1  0
 47 48  2  0
 48  2  1  0
 14  6  1  0
 46 19  1  0
 40 24  1  0
 46 41  1  0
 39 30  1  0
 37 33  1  0
  1 49  1  0
  1 50  1  0
  1 51  1  0
  3 52  1  0
  4 53  1  0
 10 54  1  0
 10 55  1  0
 10 56  1  0
 11 57  1  0
 11 58  1  0
 11 59  1  0
 12 60  1  0
 12 61  1  0
 12 62  1  0
 13 63  1  0
 15 64  1  0
 18 65  1  0
 20 66  1  0
 21 67  1  0
 25 68  1  0
 26 69  1  0
 29 70  1  0
 31 71  1  0
 32 72  1  0
 35 73  1  0
 38 74  1  0
 38 75  1  0
 38 76  1  0
 39 77  1  0
 42 78  1  0
 43 79  1  0
 44 80  1  0
 45 81  1  0
 47 82  1  0
 48 83  1  0
M  END
$$$$
