
     RDKit          3D

 19 19  0  0  0  0  0  0  0  0999 V2000
    2.7651   -0.0244    0.3626 C   0  0  0  0  0  0  0  0  0  0  0  0
    1.3943   -0.0206   -0.0509 N   0  0  0  0  0  0  0  0  0  0  0  0
    0.8709   -0.3056   -1.3657 C   0  0  0  0  0  0  0  0  0  0  0  0
    1.6657   -0.6039   -2.3217 O   0  0  0  0  0  0  0  0  0  0  0  0
   -0.4887   -0.2101   -1.4055 O   0  0  0  0  0  0  0  0  0  0  0  0
   -0.9864    0.0562   -0.0959 C   0  0  0  0  0  0  0  0  0  0  0  0
   -1.8498    1.2700   -0.1814 C   0  0  0  0  0  0  0  0  0  0  0  0
   -1.6935   -1.1966    0.3609 C   0  0  0  0  0  0  0  0  0  0  0  0
    0.2427    0.2583    0.7147 C   0  0  0  0  0  0  0  0  0  0  0  0
    0.2588    0.6244    1.9094 O   0  0  0  0  0  0  0  0  0  0  0  0
    3.1204    0.9856    0.5960 H   0  0  0  0  0  0  0  0  0  0  0  0
    2.9711   -0.6691    1.2359 H   0  0  0  0  0  0  0  0  0  0  0  0
    3.3986   -0.4315   -0.4716 H   0  0  0  0  0  0  0  0  0  0  0  0
   -1.2726    2.1412    0.1916 H   0  0  0  0  0  0  0  0  0  0  0  0
   -2.8050    1.1961    0.3598 H   0  0  0  0  0  0  0  0  0  0  0  0
   -2.1201    1.5129   -1.2507 H   0  0  0  0  0  0  0  0  0  0  0  0
   -2.6864   -1.2452   -0.1113 H   0  0  0  0  0  0  0  0  0  0  0  0
   -1.7406   -1.2887    1.4771 H   0  0  0  0  0  0  0  0  0  0  0  0
   -1.0446   -2.0491    0.0466 H   0  0  0  0  0  0  0  0  0  0  0  0
  1  2  1  0
  2  3  1  0
  3  4  2  0
  3  5  1  0
  5  6  1  0
  6  7  1  0
  6  8  1  0
  6  9  1  0
  9 10  2  0
  9  2  1  0
  1 11  1  0
  1 12  1  0
  1 13  1  0
  7 14  1  0
  7 15  1  0
  7 16  1  0
  8 17  1  0
  8 18  1  0
  8 19  1  0
M  END
$$$$
