
     RDKit          3D

 28 30  0  0  0  0  0  0  0  0999 V2000
    1.1822   -2.9210    0.6644 O   0  0  0  0  0  0  0  0  0  0  0  0
    1.1225   -1.7010    0.4323 C   0  0  0  0  0  0  0  0  0  0  0  0
    2.3402   -0.9594    0.3204 C   0  0  0  0  0  0  0  0  0  0  0  0
    3.4862   -1.3385    1.0347 C   0  0  0  0  0  0  0  0  0  0  0  0
    4.6791   -0.6600    0.9379 C   0  0  0  0  0  0  0  0  0  0  0  0
    4.7774    0.4295    0.1205 C   0  0  0  0  0  0  0  0  0  0  0  0
    5.9458    1.1338   -0.0049 F   0  0  0  0  0  0  0  0  0  0  0  0
    3.6746    0.8284   -0.5940 C   0  0  0  0  0  0  0  0  0  0  0  0
    3.7993    1.9513   -1.4280 O   0  0  0  0  0  0  0  0  0  0  0  0
    2.4658    0.1394   -0.4951 C   0  0  0  0  0  0  0  0  0  0  0  0
   -0.2354   -1.1552    0.3002 C   0  0  0  0  0  0  0  0  0  0  0  0
   -1.3810   -1.5111    0.2736 N   0  0  0  0  0  0  0  0  0  0  0  0
   -2.4499   -0.7589    0.1623 C   0  0  0  0  0  0  0  0  0  0  0  0
   -3.7974   -1.1703    0.1312 C   0  0  0  0  0  0  0  0  0  0  0  0
   -4.8051   -0.2494    0.0104 C   0  0  0  0  0  0  0  0  0  0  0  0
   -4.5873    1.1019   -0.0867 C   0  0  0  0  0  0  0  0  0  0  0  0
   -5.6352    1.9632   -0.2046 O   0  0  0  0  0  0  0  0  0  0  0  0
   -3.2577    1.5131   -0.0566 C   0  0  0  0  0  0  0  0  0  0  0  0
   -2.2560    0.5780    0.0652 C   0  0  0  0  0  0  0  0  0  0  0  0
   -0.4620    0.6800    0.1431 S   0  0  0  0  0  0  0  0  0  0  0  0
    3.3603   -2.2091    1.6706 H   0  0  0  0  0  0  0  0  0  0  0  0
    5.5221   -1.0117    1.5204 H   0  0  0  0  0  0  0  0  0  0  0  0
    3.9409    2.8302   -0.9210 H   0  0  0  0  0  0  0  0  0  0  0  0
    1.6632    0.5196   -1.1003 H   0  0  0  0  0  0  0  0  0  0  0  0
   -4.0678   -2.2312    0.2029 H   0  0  0  0  0  0  0  0  0  0  0  0
   -5.8418   -0.6380   -0.0078 H   0  0  0  0  0  0  0  0  0  0  0  0
   -6.1863    2.2953    0.5814 H   0  0  0  0  0  0  0  0  0  0  0  0
   -2.9964    2.5511   -0.1268 H   0  0  0  0  0  0  0  0  0  0  0  0
  1  2  2  0
  2  3  1  0
  3  4  2  0
  4  5  1  0
  5  6  2  0
  6  7  1  0
  6  8  1  0
  8  9  1  0
  8 10  2  0
  2 11  1  0
 11 12  2  0
 12 13  1  0
 13 14  2  0
 14 15  1  0
 15 16  2  0
 16 17  1  0
 16 18  1  0
 18 19  2  0
 19 20  1  0
 10  3  1  0
 20 11  1  0
 19 13  1  0
  4 21  1  0
  5 22  1  0
  9 23  1  0
 10 24  1  0
 14 25  1  0
 15 26  1  0
 17 27  1  0
 18 28  1  0
M  END
$$$$
