
     RDKit          3D

 40 43  0  0  0  0  0  0  0  0999 V2000
    7.0427   -1.7532    0.7470 C   0  0  0  0  0  0  0  0  0  0  0  0
    5.5806   -1.8341    0.2896 C   0  0  0  0  0  0  0  0  0  0  0  0
    4.9861   -3.1294    0.2738 N   0  0  0  0  0  0  0  0  0  0  0  0
    3.2933   -2.6872   -0.3338 S   0  0  0  0  0  0  0  0  0  0  0  0
    3.6172   -0.9866   -0.4600 C   0  0  0  0  0  0  0  0  0  0  0  0
    2.6611    0.0855   -0.9151 C   0  0  0  0  0  0  0  0  0  0  0  0
    2.7381    0.8136   -2.0320 N   0  0  0  0  0  0  0  0  0  0  0  0
    1.7131    1.6841   -2.0786 N   0  0  0  0  0  0  0  0  0  0  0  0
    0.9868    1.4930   -0.9709 C   0  0  0  0  0  0  0  0  0  0  0  0
    1.5709    0.5108   -0.2617 N   0  0  0  0  0  0  0  0  0  0  0  0
    0.9817    0.0863    0.9768 C   0  0  0  0  0  0  0  0  0  0  0  0
   -0.5338    0.0290    0.8967 C   0  0  0  0  0  0  0  0  0  0  0  0
   -1.1131    1.0790    0.0675 N   0  0  0  0  0  0  0  0  0  0  0  0
   -2.4695    1.0317   -0.2576 C   0  0  0  0  0  0  0  0  0  0  0  0
   -2.8311    2.0938   -0.9855 O   0  0  0  0  0  0  0  0  0  0  0  0
   -3.5378    0.1232    0.0048 C   0  0  0  0  0  0  0  0  0  0  0  0
   -3.5443   -0.7386    1.0489 C   0  0  0  0  0  0  0  0  0  0  0  0
   -4.6503   -1.6099    1.2000 C   0  0  0  0  0  0  0  0  0  0  0  0
   -5.6689   -1.5654    0.3136 C   0  0  0  0  0  0  0  0  0  0  0  0
   -5.6628   -0.6923   -0.7424 C   0  0  0  0  0  0  0  0  0  0  0  0
   -4.6093    0.1528   -0.9096 C   0  0  0  0  0  0  0  0  0  0  0  0
   -0.2496    2.1263   -0.3859 C   0  0  2  0  0  0  0  0  0  0  0  0
   -0.7661    3.0757   -1.4038 C   0  0  0  0  0  0  0  0  0  0  0  0
    4.8179   -0.8906   -0.0851 N   0  0  0  0  0  0  0  0  0  0  0  0
    7.2048   -2.3213    1.6580 H   0  0  0  0  0  0  0  0  0  0  0  0
    7.6538   -2.0663   -0.1250 H   0  0  0  0  0  0  0  0  0  0  0  0
    7.2534   -0.6681    0.9227 H   0  0  0  0  0  0  0  0  0  0  0  0
    1.3382   -0.9380    1.2697 H   0  0  0  0  0  0  0  0  0  0  0  0
    1.2859    0.7760    1.7802 H   0  0  0  0  0  0  0  0  0  0  0  0
   -0.7939   -0.9886    0.6016 H   0  0  0  0  0  0  0  0  0  0  0  0
   -0.8417    0.1601    1.9777 H   0  0  0  0  0  0  0  0  0  0  0  0
   -2.7687   -0.8051    1.7954 H   0  0  0  0  0  0  0  0  0  0  0  0
   -4.6075   -2.2912    2.0599 H   0  0  0  0  0  0  0  0  0  0  0  0
   -6.5121   -2.2528    0.4610 H   0  0  0  0  0  0  0  0  0  0  0  0
   -6.5430   -0.7399   -1.4048 H   0  0  0  0  0  0  0  0  0  0  0  0
   -4.6421    0.8272   -1.7504 H   0  0  0  0  0  0  0  0  0  0  0  0
    0.1084    2.7641    0.4738 H   0  0  0  0  0  0  0  0  0  0  0  0
    0.1619    3.6758   -1.7254 H   0  0  0  0  0  0  0  0  0  0  0  0
   -1.1893    2.5855   -2.2764 H   0  0  0  0  0  0  0  0  0  0  0  0
   -1.4613    3.7851   -0.9654 H   0  0  0  0  0  0  0  0  0  0  0  0
  1  2  1  0
  2  3  2  0
  3  4  1  0
  4  5  1  0
  5  6  1  0
  6  7  2  0
  7  8  1  0
  8  9  2  0
  9 10  1  0
 10 11  1  0
 11 12  1  0
 12 13  1  0
 13 14  1  0
 14 15  2  0
 14 16  1  0
 16 17  2  0
 17 18  1  0
 18 19  2  0
 19 20  1  0
 20 21  2  0
 13 22  1  0
 22 23  1  0
  5 24  2  0
 24  2  1  0
 10  6  1  0
 21 16  1  0
 22  9  1  0
  1 25  1  0
  1 26  1  0
  1 27  1  0
 11 28  1  0
 11 29  1  0
 12 30  1  0
 12 31  1  0
 17 32  1  0
 18 33  1  0
 19 34  1  0
 20 35  1  0
 21 36  1  0
 22 37  1  1
 23 38  1  0
 23 39  1  0
 23 40  1  0
M  END
$$$$
