
     RDKit          3D

 46 49  0  0  0  0  0  0  0  0999 V2000
    3.0871    2.1017    1.3354 N   0  0  0  0  0  0  0  0  0  0  0  0
    3.9751    1.9023    0.2477 C   0  0  0  0  0  0  0  0  0  0  0  0
    5.0981    2.4397    0.2574 O   0  0  0  0  0  0  0  0  0  0  0  0
    3.5824    1.0742   -0.8777 C   0  0  0  0  0  0  0  0  0  0  0  0
    4.3696    0.8155   -1.9851 C   0  0  0  0  0  0  0  0  0  0  0  0
    3.6455    0.0162   -2.7869 N   0  0  0  0  0  0  0  0  0  0  0  0
    2.4687   -0.2100   -2.2074 C   0  0  0  0  0  0  0  0  0  0  0  0
    1.3998   -0.9599   -2.6374 C   0  0  0  0  0  0  0  0  0  0  0  0
    0.2920   -1.0116   -1.8095 C   0  0  0  0  0  0  0  0  0  0  0  0
    0.2388   -0.3494   -0.6034 C   0  0  0  0  0  0  0  0  0  0  0  0
   -0.9580   -0.4451    0.2213 C   0  0  0  0  0  0  0  0  0  0  0  0
   -1.7914    0.6132    0.6032 C   0  0  0  0  0  0  0  0  0  0  0  0
   -1.6530    2.0154    0.2719 C   0  0  0  0  0  0  0  0  0  0  0  0
   -1.7117    2.4127   -1.0439 C   0  0  0  0  0  0  0  0  0  0  0  0
   -1.5830    3.7550   -1.3995 C   0  0  0  0  0  0  0  0  0  0  0  0
   -1.3937    4.7084   -0.4265 C   0  0  0  0  0  0  0  0  0  0  0  0
   -1.2709    6.0174   -0.8043 F   0  0  0  0  0  0  0  0  0  0  0  0
   -1.3331    4.3253    0.8934 C   0  0  0  0  0  0  0  0  0  0  0  0
   -1.4637    2.9728    1.2380 C   0  0  0  0  0  0  0  0  0  0  0  0
   -2.7692    0.0482    1.3582 N   0  0  0  0  0  0  0  0  0  0  0  0
   -2.5939   -1.2670    1.4636 C   0  0  0  0  0  0  0  0  0  0  0  0
   -1.4977   -1.5658    0.7754 N   0  0  0  0  0  0  0  0  0  0  0  0
   -0.9446   -2.8970    0.6296 C   0  0  0  0  0  0  0  0  0  0  0  0
   -1.8628   -3.8112   -0.1576 C   0  0  0  0  0  0  0  0  0  0  0  0
   -1.2313   -5.0585   -0.2342 O   0  0  0  0  0  0  0  0  0  0  0  0
   -0.8738   -3.4800    2.0437 C   0  0  0  0  0  0  0  0  0  0  0  0
   -0.0489   -2.6608    2.8182 O   0  0  0  0  0  0  0  0  0  0  0  0
    1.3212    0.3649   -0.2470 N   0  0  0  0  0  0  0  0  0  0  0  0
    2.3905    0.4248   -1.0284 N   0  0  0  0  0  0  0  0  0  0  0  0
    2.1332    2.5112    1.2265 H   0  0  0  0  0  0  0  0  0  0  0  0
    3.3872    1.8292    2.3114 H   0  0  0  0  0  0  0  0  0  0  0  0
    5.3674    1.1484   -2.2291 H   0  0  0  0  0  0  0  0  0  0  0  0
    1.4633   -1.4714   -3.5883 H   0  0  0  0  0  0  0  0  0  0  0  0
   -0.5399   -1.5970   -2.1490 H   0  0  0  0  0  0  0  0  0  0  0  0
   -1.8568    1.7126   -1.8397 H   0  0  0  0  0  0  0  0  0  0  0  0
   -1.6265    4.0830   -2.4260 H   0  0  0  0  0  0  0  0  0  0  0  0
   -1.1843    5.0901    1.6386 H   0  0  0  0  0  0  0  0  0  0  0  0
   -1.4103    2.7136    2.2848 H   0  0  0  0  0  0  0  0  0  0  0  0
   -3.2084   -1.9687    1.9965 H   0  0  0  0  0  0  0  0  0  0  0  0
    0.0906   -2.8988    0.2477 H   0  0  0  0  0  0  0  0  0  0  0  0
   -2.8166   -3.8756    0.3924 H   0  0  0  0  0  0  0  0  0  0  0  0
   -2.0507   -3.3754   -1.1626 H   0  0  0  0  0  0  0  0  0  0  0  0
   -1.7955   -5.6718   -0.7625 H   0  0  0  0  0  0  0  0  0  0  0  0
   -1.9060   -3.4765    2.4422 H   0  0  0  0  0  0  0  0  0  0  0  0
   -0.4922   -4.5310    1.9933 H   0  0  0  0  0  0  0  0  0  0  0  0
   -0.4425   -2.5132    3.7156 H   0  0  0  0  0  0  0  0  0  0  0  0
  1  2  1  0
  2  3  2  0
  2  4  1  0
  4  5  2  0
  5  6  1  0
  6  7  2  0
  7  8  1  0
  8  9  2  0
  9 10  1  0
 10 11  1  0
 11 12  2  0
 12 13  1  0
 13 14  2  0
 14 15  1  0
 15 16  2  0
 16 17  1  0
 16 18  1  0
 18 19  2  0
 12 20  1  0
 20 21  2  0
 21 22  1  0
 22 23  1  0
 23 24  1  0
 24 25  1  0
 23 26  1  0
 26 27  1  0
 10 28  2  0
 28 29  1  0
 29  4  1  0
 29  7  1  0
 22 11  1  0
 19 13  1  0
  1 30  1  0
  1 31  1  0
  5 32  1  0
  8 33  1  0
  9 34  1  0
 14 35  1  0
 15 36  1  0
 18 37  1  0
 19 38  1  0
 21 39  1  0
 23 40  1  0
 24 41  1  0
 24 42  1  0
 25 43  1  0
 26 44  1  0
 26 45  1  0
 27 46  1  0
M  END
$$$$
