
     RDKit          3D

 54 58  0  0  0  0  0  0  0  0999 V2000
   -7.9022    0.6221    0.1021 C   0  0  0  0  0  0  0  0  0  0  0  0
   -6.4922    0.7144    0.0791 O   0  0  0  0  0  0  0  0  0  0  0  0
   -5.7767   -0.2047    0.8387 C   0  0  0  0  0  0  0  0  0  0  0  0
   -6.4032   -1.0650    1.5029 O   0  0  0  0  0  0  0  0  0  0  0  0
   -4.3578   -0.1997    0.8857 N   0  0  0  0  0  0  0  0  0  0  0  0
   -3.7719    0.8572    0.0630 C   0  0  0  0  0  0  0  0  0  0  0  0
   -2.6103    0.3296   -0.7355 C   0  0  0  0  0  0  0  0  0  0  0  0
   -2.6161    0.6186   -2.0567 C   0  0  0  0  0  0  0  0  0  0  0  0
   -1.5894    0.1236   -2.8724 C   0  0  0  0  0  0  0  0  0  0  0  0
   -1.5868    0.4935   -4.5838 Cl  0  0  0  0  0  0  0  0  0  0  0  0
   -0.5732   -0.6600   -2.3275 C   0  0  0  0  0  0  0  0  0  0  0  0
   -0.5642   -0.9577   -0.9795 C   0  0  0  0  0  0  0  0  0  0  0  0
   -1.5838   -0.4491   -0.2286 C   0  0  0  0  0  0  0  0  0  0  0  0
   -1.4059   -0.8227    1.1457 N   0  0  0  0  0  0  0  0  0  0  0  0
   -2.4144   -1.1882    1.9914 C   0  0  0  0  0  0  0  0  0  0  0  0
   -1.8422   -1.4615    3.1468 N   0  0  0  0  0  0  0  0  0  0  0  0
   -0.5398   -1.2730    3.0289 N   0  0  0  0  0  0  0  0  0  0  0  0
   -0.2181   -0.8542    1.7395 C   0  0  0  0  0  0  0  0  0  0  0  0
    1.0935   -0.4890    1.2228 C   0  0  0  0  0  0  0  0  0  0  0  0
    2.1631   -1.5354    1.1268 C   0  0  0  0  0  0  0  0  0  0  0  0
    3.5186   -0.8084    1.2390 C   0  0  0  0  0  0  0  0  0  0  0  0
    3.5888    0.0992    0.1196 N   0  0  0  0  0  0  0  0  0  0  0  0
    4.8722    0.5408   -0.3073 C   0  0  0  0  0  0  0  0  0  0  0  0
    6.0394    0.1739    0.3257 C   0  0  0  0  0  0  0  0  0  0  0  0
    7.2934    0.6182   -0.1112 C   0  0  0  0  0  0  0  0  0  0  0  0
    7.3858    1.4488   -1.2059 C   0  0  0  0  0  0  0  0  0  0  0  0
    6.2040    1.8008   -1.8208 C   0  0  0  0  0  0  0  0  0  0  0  0
    5.0097    1.3630   -1.3852 N   0  0  0  0  0  0  0  0  0  0  0  0
    2.4120    0.5803   -0.5838 C   0  0  0  0  0  0  0  0  0  0  0  0
    1.3146    0.7760    0.4808 C   0  0  0  0  0  0  0  0  0  0  0  0
   -3.8373   -1.2376    1.7337 C   0  0  0  0  0  0  0  0  0  0  0  0
   -8.3781    1.6229    0.0579 H   0  0  0  0  0  0  0  0  0  0  0  0
   -8.2310    0.1440    1.0448 H   0  0  0  0  0  0  0  0  0  0  0  0
   -8.2824   -0.0470   -0.7230 H   0  0  0  0  0  0  0  0  0  0  0  0
   -4.4978    1.2153   -0.6771 H   0  0  0  0  0  0  0  0  0  0  0  0
   -3.4749    1.7340    0.6752 H   0  0  0  0  0  0  0  0  0  0  0  0
   -3.4152    1.2274   -2.4575 H   0  0  0  0  0  0  0  0  0  0  0  0
    0.2254   -1.0517   -2.9343 H   0  0  0  0  0  0  0  0  0  0  0  0
    0.1581   -1.5841   -0.5782 H   0  0  0  0  0  0  0  0  0  0  0  0
    1.5271   -0.1121    2.2549 H   0  0  0  0  0  0  0  0  0  0  0  0
    2.0305   -2.2438    1.9678 H   0  0  0  0  0  0  0  0  0  0  0  0
    2.2760   -2.1104    0.2315 H   0  0  0  0  0  0  0  0  0  0  0  0
    4.3219   -1.5875    1.2165 H   0  0  0  0  0  0  0  0  0  0  0  0
    3.5296   -0.3057    2.2164 H   0  0  0  0  0  0  0  0  0  0  0  0
    6.0148   -0.4792    1.1946 H   0  0  0  0  0  0  0  0  0  0  0  0
    8.1937    0.3263    0.3889 H   0  0  0  0  0  0  0  0  0  0  0  0
    8.3194    1.8272   -1.5945 H   0  0  0  0  0  0  0  0  0  0  0  0
    6.2875    2.4643   -2.6941 H   0  0  0  0  0  0  0  0  0  0  0  0
    2.6812    1.5708   -1.0075 H   0  0  0  0  0  0  0  0  0  0  0  0
    2.1158   -0.0537   -1.4085 H   0  0  0  0  0  0  0  0  0  0  0  0
    1.8396    1.6012    1.0869 H   0  0  0  0  0  0  0  0  0  0  0  0
    0.4645    1.3501    0.1332 H   0  0  0  0  0  0  0  0  0  0  0  0
   -4.1232   -2.2141    1.2418 H   0  0  0  0  0  0  0  0  0  0  0  0
   -4.3921   -1.2481    2.7025 H   0  0  0  0  0  0  0  0  0  0  0  0
  1  2  1  0
  2  3  1  0
  3  4  2  0
  3  5  1  0
  5  6  1  0
  6  7  1  0
  7  8  2  0
  8  9  1  0
  9 10  1  0
  9 11  2  0
 11 12  1  0
 12 13  2  0
 13 14  1  0
 14 15  1  0
 15 16  2  0
 16 17  1  0
 17 18  2  0
 18 19  1  0
 19 20  1  0
 20 21  1  0
 21 22  1  0
 22 23  1  0
 23 24  2  0
 24 25  1  0
 25 26  2  0
 26 27  1  0
 27 28  2  0
 22 29  1  0
 29 30  1  0
 15 31  1  0
 31  5  1  0
 13  7  1  0
 18 14  1  0
 30 19  1  0
 28 23  1  0
  1 32  1  0
  1 33  1  0
  1 34  1  0
  6 35  1  0
  6 36  1  0
  8 37  1  0
 11 38  1  0
 12 39  1  0
 19 40  1  0
 20 41  1  0
 20 42  1  0
 21 43  1  0
 21 44  1  0
 24 45  1  0
 25 46  1  0
 26 47  1  0
 27 48  1  0
 29 49  1  0
 29 50  1  0
 30 51  1  0
 30 52  1  0
 31 53  1  0
 31 54  1  0
M  END
$$$$
