
     RDKit          3D

 63 68  0  0  0  0  0  0  0  0999 V2000
  -12.7324   -0.0667   -0.2268 C   0  0  0  0  0  0  0  0  0  0  0  0
  -11.2641   -0.2888   -0.1615 C   0  0  0  0  0  0  0  0  0  0  0  0
  -10.4516    0.7729    0.1398 C   0  0  0  0  0  0  0  0  0  0  0  0
   -9.0767    0.6016    0.2094 C   0  0  0  0  0  0  0  0  0  0  0  0
   -8.5072   -0.6301   -0.0214 C   0  0  0  0  0  0  0  0  0  0  0  0
   -7.0749   -0.8662    0.0395 C   0  0  0  0  0  0  0  0  0  0  0  0
   -6.4294   -2.0430   -0.0009 N   0  0  0  0  0  0  0  0  0  0  0  0
   -5.0859   -1.8273    0.0872 C   0  0  0  0  0  0  0  0  0  0  0  0
   -4.9020   -0.4786    0.1843 N   0  0  0  0  0  0  0  0  0  0  0  0
   -3.6557    0.2138    0.3034 C   0  0  0  0  0  0  0  0  0  0  0  0
   -3.5313    1.2227    1.2289 C   0  0  0  0  0  0  0  0  0  0  0  0
   -2.3342    1.8907    1.3363 C   0  0  0  0  0  0  0  0  0  0  0  0
   -1.2334    1.5875    0.5430 C   0  0  0  0  0  0  0  0  0  0  0  0
   -0.0567    2.3452    0.7228 N   0  0  0  0  0  0  0  0  0  0  0  0
    1.1329    2.0025    0.0355 C   0  0  0  0  0  0  0  0  0  0  0  0
    1.3124    2.4226   -1.2296 N   0  0  0  0  0  0  0  0  0  0  0  0
    2.4333    2.1432   -1.9117 C   0  0  0  0  0  0  0  0  0  0  0  0
    3.4584    1.3999   -1.3199 C   0  0  0  0  0  0  0  0  0  0  0  0
    3.2766    0.9721   -0.0318 C   0  0  0  0  0  0  0  0  0  0  0  0
    4.3006    0.1902    0.7012 C   0  0  0  0  0  0  0  0  0  0  0  0
    4.0483   -0.1979    2.0077 C   0  0  0  0  0  0  0  0  0  0  0  0
    4.9766   -0.9050    2.7097 C   0  0  0  0  0  0  0  0  0  0  0  0
    6.1703   -1.2318    2.1119 C   0  0  0  0  0  0  0  0  0  0  0  0
    6.4896   -0.8767    0.8125 C   0  0  0  0  0  0  0  0  0  0  0  0
    7.7132   -1.1825    0.2019 N   0  0  0  0  0  0  0  0  0  0  0  0
    8.8743   -1.5174    0.9810 C   0  0  0  0  0  0  0  0  0  0  0  0
    9.9217   -0.4580    0.5899 C   0  0  0  0  0  0  0  0  0  0  0  0
   10.1614   -0.5913   -0.7508 O   0  0  0  0  0  0  0  0  0  0  0  0
    9.0769   -0.2972   -1.5747 C   0  0  0  0  0  0  0  0  0  0  0  0
    7.9006   -1.1938   -1.2282 C   0  0  0  0  0  0  0  0  0  0  0  0
    5.4882   -0.1507    0.1473 C   0  0  0  0  0  0  0  0  0  0  0  0
    2.1183    1.2927    0.5903 N   0  0  0  0  0  0  0  0  0  0  0  0
   -1.3695    0.5800   -0.3748 C   0  0  0  0  0  0  0  0  0  0  0  0
   -2.5815   -0.1061   -0.4943 C   0  0  0  0  0  0  0  0  0  0  0  0
   -6.0917    0.0480    0.1526 N   0  0  0  0  0  0  0  0  0  0  0  0
   -9.3500   -1.6610   -0.3181 C   0  0  0  0  0  0  0  0  0  0  0  0
  -10.7108   -1.4974   -0.3882 N   0  0  0  0  0  0  0  0  0  0  0  0
  -12.9937    0.9408    0.1540 H   0  0  0  0  0  0  0  0  0  0  0  0
  -13.1535   -0.2723   -1.2224 H   0  0  0  0  0  0  0  0  0  0  0  0
  -13.2297   -0.7966    0.4641 H   0  0  0  0  0  0  0  0  0  0  0  0
  -10.8309    1.7663    0.3325 H   0  0  0  0  0  0  0  0  0  0  0  0
   -8.4194    1.4267    0.4444 H   0  0  0  0  0  0  0  0  0  0  0  0
   -4.2926   -2.5498    0.0843 H   0  0  0  0  0  0  0  0  0  0  0  0
   -4.3376    1.5126    1.8767 H   0  0  0  0  0  0  0  0  0  0  0  0
   -2.2093    2.6957    2.0662 H   0  0  0  0  0  0  0  0  0  0  0  0
   -0.0199    3.1682    1.3567 H   0  0  0  0  0  0  0  0  0  0  0  0
    2.6000    2.4738   -2.9401 H   0  0  0  0  0  0  0  0  0  0  0  0
    4.3621    1.1717   -1.8595 H   0  0  0  0  0  0  0  0  0  0  0  0
    3.0819    0.0972    2.4203 H   0  0  0  0  0  0  0  0  0  0  0  0
    4.7760   -1.2023    3.7173 H   0  0  0  0  0  0  0  0  0  0  0  0
    6.8947   -1.8044    2.6921 H   0  0  0  0  0  0  0  0  0  0  0  0
    8.7425   -1.5675    2.0544 H   0  0  0  0  0  0  0  0  0  0  0  0
    9.3000   -2.4723    0.5558 H   0  0  0  0  0  0  0  0  0  0  0  0
   10.8523   -0.6278    1.1279 H   0  0  0  0  0  0  0  0  0  0  0  0
    9.4424    0.5247    0.8532 H   0  0  0  0  0  0  0  0  0  0  0  0
    9.3866   -0.5602   -2.6063 H   0  0  0  0  0  0  0  0  0  0  0  0
    8.8257    0.7616   -1.5512 H   0  0  0  0  0  0  0  0  0  0  0  0
    8.2369   -2.2314   -1.5291 H   0  0  0  0  0  0  0  0  0  0  0  0
    7.0353   -0.9669   -1.8326 H   0  0  0  0  0  0  0  0  0  0  0  0
    5.7054    0.1375   -0.8488 H   0  0  0  0  0  0  0  0  0  0  0  0
   -0.5333    0.3213   -1.0049 H   0  0  0  0  0  0  0  0  0  0  0  0
   -2.6233   -0.8792   -1.2300 H   0  0  0  0  0  0  0  0  0  0  0  0
   -9.0135   -2.6853   -0.5215 H   0  0  0  0  0  0  0  0  0  0  0  0
  1  2  1  0
  2  3  2  0
  3  4  1  0
  4  5  2  0
  5  6  1  0
  6  7  1  0
  7  8  2  0
  8  9  1  0
  9 10  1  0
 10 11  2  0
 11 12  1  0
 12 13  2  0
 13 14  1  0
 14 15  1  0
 15 16  2  0
 16 17  1  0
 17 18  2  0
 18 19  1  0
 19 20  1  0
 20 21  2  0
 21 22  1  0
 22 23  2  0
 23 24  1  0
 24 25  1  0
 25 26  1  0
 26 27  1  0
 27 28  1  0
 28 29  1  0
 29 30  1  0
 24 31  2  0
 19 32  2  0
 13 33  1  0
 33 34  2  0
  9 35  1  0
  5 36  1  0
 36 37  2  0
 37  2  1  0
 35  6  2  0
 34 10  1  0
 32 15  1  0
 31 20  1  0
 30 25  1  0
  1 38  1  0
  1 39  1  0
  1 40  1  0
  3 41  1  0
  4 42  1  0
  8 43  1  0
 11 44  1  0
 12 45  1  0
 14 46  1  0
 17 47  1  0
 18 48  1  0
 21 49  1  0
 22 50  1  0
 23 51  1  0
 26 52  1  0
 26 53  1  0
 27 54  1  0
 27 55  1  0
 29 56  1  0
 29 57  1  0
 30 58  1  0
 30 59  1  0
 31 60  1  0
 33 61  1  0
 34 62  1  0
 36 63  1  0
M  END
$$$$
