
     RDKit          3D

 57 60  0  0  0  0  0  0  0  0999 V2000
    7.2688    3.1569   -1.3770 C   0  0  0  0  0  0  0  0  0  0  0  0
    6.5684    1.9271   -1.1674 N   0  0  0  0  0  0  0  0  0  0  0  0
    5.6741    1.6954   -0.0843 C   0  0  0  0  0  0  0  0  0  0  0  0
    5.5035    2.6365    0.7264 O   0  0  0  0  0  0  0  0  0  0  0  0
    4.9863    0.3655    0.0416 C   0  0  2  0  0  0  0  0  0  0  0  0
    4.1193   -0.0370   -1.1024 C   0  0  0  0  0  0  0  0  0  0  0  0
    3.5455    0.3619    0.2314 C   0  0  1  0  0  0  0  0  0  0  0  0
    2.9318   -0.4989    1.2124 C   0  0  1  0  0  0  0  0  0  0  0  0
    2.1044    0.4586    2.1623 C   0  0  0  0  0  0  0  0  0  0  0  0
    1.8905   -1.3741    0.6309 C   0  0  0  0  0  0  0  0  0  0  0  0
    0.5416   -1.0192    0.6320 C   0  0  0  0  0  0  0  0  0  0  0  0
   -0.4448   -1.7747    0.0324 C   0  0  0  0  0  0  0  0  0  0  0  0
   -1.8521   -1.3152    0.0826 C   0  0  0  0  0  0  0  0  0  0  0  0
   -2.6305   -1.3260   -0.9859 C   0  0  0  0  0  0  0  0  0  0  0  0
   -2.0378   -1.7946   -2.1381 F   0  0  0  0  0  0  0  0  0  0  0  0
   -4.0071   -0.8790   -0.9812 C   0  0  0  0  0  0  0  0  0  0  0  0
   -4.6827   -0.4447    0.1328 C   0  0  0  0  0  0  0  0  0  0  0  0
   -5.9516   -0.0076    0.1239 N   0  0  0  0  0  0  0  0  0  0  0  0
   -6.6063    0.0085   -1.0479 C   0  0  0  0  0  0  0  0  0  0  0  0
   -7.9243    0.4458   -1.1483 O   0  0  0  0  0  0  0  0  0  0  0  0
   -8.7126    0.9025   -0.1029 C   0  0  0  0  0  0  0  0  0  0  0  0
   -8.2235    2.0853    0.6168 C   0  0  0  0  0  0  0  0  0  0  0  0
   -6.9708    2.7662    0.1902 C   0  0  0  0  0  0  0  0  0  0  0  0
   -8.8148    2.5625    1.5869 O   0  0  0  0  0  0  0  0  0  0  0  0
   -5.9579   -0.4212   -2.1916 C   0  0  0  0  0  0  0  0  0  0  0  0
   -4.6757   -0.8590   -2.1549 N   0  0  0  0  0  0  0  0  0  0  0  0
   -0.0596   -2.9356   -0.5922 C   0  0  0  0  0  0  0  0  0  0  0  0
    1.2749   -3.3114   -0.6057 C   0  0  0  0  0  0  0  0  0  0  0  0
    2.2604   -2.5391    0.0036 C   0  0  0  0  0  0  0  0  0  0  0  0
    3.5168   -3.0314   -0.0358 F   0  0  0  0  0  0  0  0  0  0  0  0
    3.6895   -1.2406    2.1472 N   0  0  0  0  0  0  0  0  0  0  0  0
    4.9174   -1.5115    2.2094 C   0  0  0  0  0  0  0  0  0  0  0  0
    5.4903   -2.2952    3.2638 N   0  0  0  0  0  0  0  0  0  0  0  0
    5.9362   -0.8672    0.8949 S   0  0  0  0  0  0  0  0  0  0  0  0
    8.3126    2.9712   -1.7251 H   0  0  0  0  0  0  0  0  0  0  0  0
    6.8184    3.7889   -2.1754 H   0  0  0  0  0  0  0  0  0  0  0  0
    7.3624    3.7755   -0.4497 H   0  0  0  0  0  0  0  0  0  0  0  0
    6.7196    1.1339   -1.8547 H   0  0  0  0  0  0  0  0  0  0  0  0
    4.0856    0.7042   -1.9427 H   0  0  0  0  0  0  0  0  0  0  0  0
    4.1942   -1.0497   -1.4658 H   0  0  0  0  0  0  0  0  0  0  0  0
    3.0671    1.4034    0.1459 H   0  0  0  0  0  0  0  0  0  0  0  0
    2.8799    0.8852    2.8508 H   0  0  0  0  0  0  0  0  0  0  0  0
    1.6530    1.2448    1.5682 H   0  0  0  0  0  0  0  0  0  0  0  0
    1.4504   -0.2050    2.7154 H   0  0  0  0  0  0  0  0  0  0  0  0
    0.2185   -0.1112    1.1155 H   0  0  0  0  0  0  0  0  0  0  0  0
   -2.2247   -0.9661    1.0346 H   0  0  0  0  0  0  0  0  0  0  0  0
   -4.1752   -0.4497    1.0928 H   0  0  0  0  0  0  0  0  0  0  0  0
   -8.9229    0.1021    0.6616 H   0  0  0  0  0  0  0  0  0  0  0  0
   -9.7138    1.1494   -0.5259 H   0  0  0  0  0  0  0  0  0  0  0  0
   -6.1600    2.6338    0.9402 H   0  0  0  0  0  0  0  0  0  0  0  0
   -7.2097    3.8709    0.1689 H   0  0  0  0  0  0  0  0  0  0  0  0
   -6.6697    2.5060   -0.8411 H   0  0  0  0  0  0  0  0  0  0  0  0
   -6.5122   -0.3946   -3.1182 H   0  0  0  0  0  0  0  0  0  0  0  0
   -0.8094   -3.5455   -1.0707 H   0  0  0  0  0  0  0  0  0  0  0  0
    1.5739   -4.2302   -1.1006 H   0  0  0  0  0  0  0  0  0  0  0  0
    6.0385   -1.7880    3.9820 H   0  0  0  0  0  0  0  0  0  0  0  0
    5.3561   -3.3187    3.2969 H   0  0  0  0  0  0  0  0  0  0  0  0
  1  2  1  0
  2  3  1  0
  3  4  2  0
  5  3  1  6
  5  6  1  0
  6  7  1  0
  7  8  1  0
  8  9  1  1
  8 10  1  0
 10 11  2  0
 11 12  1  0
 12 13  1  0
 13 14  2  0
 14 15  1  0
 14 16  1  0
 16 17  2  0
 17 18  1  0
 18 19  2  0
 19 20  1  0
 20 21  1  0
 21 22  1  0
 22 23  1  0
 22 24  2  0
 19 25  1  0
 25 26  2  0
 12 27  2  0
 27 28  1  0
 28 29  2  0
 29 30  1  0
  8 31  1  0
 31 32  2  0
 32 33  1  0
 32 34  1  0
  7  5  1  0
 29 10  1  0
 34  5  1  0
 26 16  1  0
  1 35  1  0
  1 36  1  0
  1 37  1  0
  2 38  1  0
  6 39  1  0
  6 40  1  0
  7 41  1  6
  9 42  1  0
  9 43  1  0
  9 44  1  0
 11 45  1  0
 13 46  1  0
 17 47  1  0
 21 48  1  0
 21 49  1  0
 23 50  1  0
 23 51  1  0
 23 52  1  0
 25 53  1  0
 27 54  1  0
 28 55  1  0
 33 56  1  0
 33 57  1  0
M  END
$$$$
