
     RDKit          3D

 56 60  0  0  0  0  0  0  0  0999 V2000
   -0.9462   -2.1137    1.3643 N   0  0  0  0  0  0  0  0  0  0  0  0
   -2.0821   -1.3055    1.0405 C   0  0  0  0  0  0  0  0  0  0  0  0
   -3.2456   -1.7304    1.5062 N   0  0  0  0  0  0  0  0  0  0  0  0
   -4.4177   -1.1467    1.3035 C   0  0  0  0  0  0  0  0  0  0  0  0
   -4.4038    0.0105    0.5324 C   0  0  0  0  0  0  0  0  0  0  0  0
   -5.6470    0.7034    0.2677 C   0  0  0  0  0  0  0  0  0  0  0  0
   -5.8617    2.0501    0.3453 C   0  0  0  0  0  0  0  0  0  0  0  0
   -7.1505    2.2600    0.0199 N   0  0  0  0  0  0  0  0  0  0  0  0
   -7.7502    1.1134   -0.2566 N   0  0  0  0  0  0  0  0  0  0  0  0
   -9.1354    0.9082   -0.6497 C   0  0  0  0  0  0  0  0  0  0  0  0
   -9.9972    0.6983    0.5642 C   0  0  0  0  0  0  0  0  0  0  0  0
   -9.9497    1.7877    1.4100 O   0  0  0  0  0  0  0  0  0  0  0  0
   -6.8251    0.1185   -0.1079 C   0  0  0  0  0  0  0  0  0  0  0  0
   -3.1973    0.4712    0.0363 C   0  0  0  0  0  0  0  0  0  0  0  0
   -2.7711    1.8767   -0.9873 S   0  0  0  0  0  0  0  0  0  0  0  0
   -0.9740    1.5597   -1.0654 C   0  0  0  0  0  0  0  0  0  0  0  0
   -0.8765    0.3987   -0.2924 C   0  0  0  0  0  0  0  0  0  0  0  0
    0.5084   -0.1130   -0.1050 C   0  0  0  0  0  0  0  0  0  0  0  0
    1.1171   -0.2518    1.1066 C   0  0  0  0  0  0  0  0  0  0  0  0
    2.4173   -0.7575    1.2225 C   0  0  0  0  0  0  0  0  0  0  0  0
    3.0799   -1.1173    0.0676 C   0  0  0  0  0  0  0  0  0  0  0  0
    4.3983   -1.6398    0.0706 N   0  0  0  0  0  0  0  0  0  0  0  0
    5.5065   -0.7422   -0.0250 C   0  0  0  0  0  0  0  0  0  0  0  0
    5.2279    0.4680   -0.1064 O   0  0  0  0  0  0  0  0  0  0  0  0
    6.8387   -1.1908   -0.0278 N   0  0  0  0  0  0  0  0  0  0  0  0
    8.0018   -0.3721   -0.1192 C   0  0  0  0  0  0  0  0  0  0  0  0
    9.2490   -1.0180   -0.1053 C   0  0  0  0  0  0  0  0  0  0  0  0
   10.4186   -0.3080   -0.1889 C   0  0  0  0  0  0  0  0  0  0  0  0
   10.4306    1.0635   -0.2899 C   0  0  0  0  0  0  0  0  0  0  0  0
    9.2110    1.6828   -0.3026 C   0  0  0  0  0  0  0  0  0  0  0  0
    9.1859    3.0408   -0.4016 F   0  0  0  0  0  0  0  0  0  0  0  0
    8.0171    0.9787   -0.2188 C   0  0  0  0  0  0  0  0  0  0  0  0
    2.4570   -0.9733   -1.1567 C   0  0  0  0  0  0  0  0  0  0  0  0
    1.1831   -0.4755   -1.2388 C   0  0  0  0  0  0  0  0  0  0  0  0
   -1.9624   -0.1361    0.2461 C   0  0  0  0  0  0  0  0  0  0  0  0
   -0.4092   -2.6550    0.6535 H   0  0  0  0  0  0  0  0  0  0  0  0
   -0.6075   -2.1927    2.3605 H   0  0  0  0  0  0  0  0  0  0  0  0
   -5.3245   -1.5123    1.6897 H   0  0  0  0  0  0  0  0  0  0  0  0
   -5.1886    2.8548    0.6072 H   0  0  0  0  0  0  0  0  0  0  0  0
   -9.2195    0.0254   -1.3192 H   0  0  0  0  0  0  0  0  0  0  0  0
   -9.4463    1.8090   -1.2242 H   0  0  0  0  0  0  0  0  0  0  0  0
   -9.6606   -0.2451    1.0439 H   0  0  0  0  0  0  0  0  0  0  0  0
  -11.0499    0.6153    0.2024 H   0  0  0  0  0  0  0  0  0  0  0  0
   -9.6476    1.4416    2.3045 H   0  0  0  0  0  0  0  0  0  0  0  0
   -7.0607   -0.9244   -0.2761 H   0  0  0  0  0  0  0  0  0  0  0  0
   -0.2900    2.1847   -1.6018 H   0  0  0  0  0  0  0  0  0  0  0  0
    0.5935    0.0458    1.9972 H   0  0  0  0  0  0  0  0  0  0  0  0
    2.8976   -0.8680    2.1738 H   0  0  0  0  0  0  0  0  0  0  0  0
    4.5403   -2.6658    0.1421 H   0  0  0  0  0  0  0  0  0  0  0  0
    6.9888   -2.2487    0.0458 H   0  0  0  0  0  0  0  0  0  0  0  0
    9.2867   -2.1117   -0.0260 H   0  0  0  0  0  0  0  0  0  0  0  0
   11.3736   -0.8243   -0.1766 H   0  0  0  0  0  0  0  0  0  0  0  0
   11.3777    1.5734   -0.3528 H   0  0  0  0  0  0  0  0  0  0  0  0
    7.0878    1.5355   -0.2347 H   0  0  0  0  0  0  0  0  0  0  0  0
    2.9723   -1.2555   -2.0867 H   0  0  0  0  0  0  0  0  0  0  0  0
    0.7314   -0.3806   -2.2404 H   0  0  0  0  0  0  0  0  0  0  0  0
  1  2  1  0
  2  3  2  0
  3  4  1  0
  4  5  2  0
  5  6  1  0
  6  7  1  0
  7  8  2  0
  8  9  1  0
  9 10  1  0
 10 11  1  0
 11 12  1  0
  9 13  1  0
  5 14  1  0
 14 15  1  0
 15 16  1  0
 16 17  2  0
 17 18  1  0
 18 19  2  0
 19 20  1  0
 20 21  2  0
 21 22  1  0
 22 23  1  0
 23 24  2  0
 23 25  1  0
 25 26  1  0
 26 27  2  0
 27 28  1  0
 28 29  2  0
 29 30  1  0
 30 31  1  0
 30 32  2  0
 21 33  1  0
 33 34  2  0
 17 35  1  0
 35  2  1  0
 13  6  2  0
 35 14  2  0
 34 18  1  0
 32 26  1  0
  1 36  1  0
  1 37  1  0
  4 38  1  0
  7 39  1  0
 10 40  1  0
 10 41  1  0
 11 42  1  0
 11 43  1  0
 12 44  1  0
 13 45  1  0
 16 46  1  0
 19 47  1  0
 20 48  1  0
 22 49  1  0
 25 50  1  0
 27 51  1  0
 28 52  1  0
 29 53  1  0
 32 54  1  0
 33 55  1  0
 34 56  1  0
M  END
$$$$
