
     RDKit          3D

 56 59  0  0  0  0  0  0  0  0999 V2000
   -4.5976   -2.5823    0.4416 C   0  0  0  0  0  0  0  0  0  0  0  0
   -3.7100   -2.4597   -0.6788 N   0  0  0  0  0  0  0  0  0  0  0  0
   -4.4857   -2.2514   -1.8723 C   0  0  0  0  0  0  0  0  0  0  0  0
   -2.7637   -1.3743   -0.4641 C   0  0  0  0  0  0  0  0  0  0  0  0
   -1.7754   -1.6922    0.6369 C   0  0  0  0  0  0  0  0  0  0  0  0
   -0.8519   -0.7138    0.8959 O   0  0  0  0  0  0  0  0  0  0  0  0
   -0.9601    0.5706    1.3477 C   0  0  0  0  0  0  0  0  0  0  0  0
   -2.1368    1.1987    1.6918 C   0  0  0  0  0  0  0  0  0  0  0  0
   -2.2007    2.5113    2.1521 C   0  0  0  0  0  0  0  0  0  0  0  0
   -3.4630    3.1335    2.5008 C   0  0  0  0  0  0  0  0  0  0  0  0
   -3.6682    4.0904    3.4539 C   0  0  0  0  0  0  0  0  0  0  0  0
   -4.9944    4.3921    3.4457 N   0  0  0  0  0  0  0  0  0  0  0  0
   -5.6038    3.6676    2.5368 N   0  0  0  0  0  0  0  0  0  0  0  0
   -4.6732    2.8666    1.9248 C   0  0  0  0  0  0  0  0  0  0  0  0
   -1.0042    3.1960    2.2599 C   0  0  0  0  0  0  0  0  0  0  0  0
    0.1645    2.5773    1.9199 C   0  0  0  0  0  0  0  0  0  0  0  0
    0.2489    1.2952    1.4677 C   0  0  0  0  0  0  0  0  0  0  0  0
    1.4775    0.6564    1.0988 N   0  0  0  0  0  0  0  0  0  0  0  0
    1.9866    0.6672   -0.2033 C   0  0  0  0  0  0  0  0  0  0  0  0
    1.3573    1.2589   -1.1109 O   0  0  0  0  0  0  0  0  0  0  0  0
    3.2483   -0.0071   -0.5219 C   0  0  0  0  0  0  0  0  0  0  0  0
    3.2125   -1.4895   -0.1810 C   0  0  0  0  0  0  0  0  0  0  0  0
    4.5612   -1.9245   -0.2702 O   0  0  0  0  0  0  0  0  0  0  0  0
    5.3545   -1.5813   -1.3786 C   0  0  0  0  0  0  0  0  0  0  0  0
    6.5610   -2.2174   -1.6113 C   0  0  0  0  0  0  0  0  0  0  0  0
    7.3191   -1.8678   -2.6976 C   0  0  0  0  0  0  0  0  0  0  0  0
    6.8535   -0.8756   -3.5450 C   0  0  0  0  0  0  0  0  0  0  0  0
    5.6544   -0.2510   -3.3043 C   0  0  0  0  0  0  0  0  0  0  0  0
    4.8825   -0.5948   -2.2133 C   0  0  0  0  0  0  0  0  0  0  0  0
    3.6011    0.0864   -1.9874 C   0  0  0  0  0  0  0  0  0  0  0  0
   -5.3251   -3.4146    0.1993 H   0  0  0  0  0  0  0  0  0  0  0  0
   -4.1184   -2.8826    1.3880 H   0  0  0  0  0  0  0  0  0  0  0  0
   -5.1917   -1.6579    0.6097 H   0  0  0  0  0  0  0  0  0  0  0  0
   -4.0266   -2.7283   -2.7719 H   0  0  0  0  0  0  0  0  0  0  0  0
   -5.4603   -2.7791   -1.7197 H   0  0  0  0  0  0  0  0  0  0  0  0
   -4.5976   -1.1750   -2.0747 H   0  0  0  0  0  0  0  0  0  0  0  0
   -2.1484   -1.2572   -1.4128 H   0  0  0  0  0  0  0  0  0  0  0  0
   -3.3277   -0.4557   -0.3288 H   0  0  0  0  0  0  0  0  0  0  0  0
   -1.3113   -2.6715    0.3328 H   0  0  0  0  0  0  0  0  0  0  0  0
   -2.3523   -1.9857    1.5710 H   0  0  0  0  0  0  0  0  0  0  0  0
   -3.0833    0.6905    1.6350 H   0  0  0  0  0  0  0  0  0  0  0  0
   -2.8929    4.5256    4.0997 H   0  0  0  0  0  0  0  0  0  0  0  0
   -6.6308    3.7218    2.3408 H   0  0  0  0  0  0  0  0  0  0  0  0
   -4.8961    2.1527    1.1215 H   0  0  0  0  0  0  0  0  0  0  0  0
   -1.0706    4.2148    2.6195 H   0  0  0  0  0  0  0  0  0  0  0  0
    1.0866    3.1383    2.0145 H   0  0  0  0  0  0  0  0  0  0  0  0
    2.0107    0.1612    1.8457 H   0  0  0  0  0  0  0  0  0  0  0  0
    4.1008    0.4229    0.0437 H   0  0  0  0  0  0  0  0  0  0  0  0
    2.8308   -1.6743    0.8369 H   0  0  0  0  0  0  0  0  0  0  0  0
    2.5776   -1.9795   -0.9249 H   0  0  0  0  0  0  0  0  0  0  0  0
    6.9109   -2.9825   -0.9506 H   0  0  0  0  0  0  0  0  0  0  0  0
    8.2632   -2.3094   -2.9491 H   0  0  0  0  0  0  0  0  0  0  0  0
    7.4107   -0.5664   -4.4140 H   0  0  0  0  0  0  0  0  0  0  0  0
    5.2836    0.5201   -3.9547 H   0  0  0  0  0  0  0  0  0  0  0  0
    2.7709   -0.4465   -2.5363 H   0  0  0  0  0  0  0  0  0  0  0  0
    3.5931    1.1327   -2.3549 H   0  0  0  0  0  0  0  0  0  0  0  0
  1  2  1  0
  2  3  1  0
  2  4  1  0
  4  5  1  0
  5  6  1  0
  6  7  1  0
  7  8  2  0
  8  9  1  0
  9 10  1  0
 10 11  1  0
 11 12  2  0
 12 13  1  0
 13 14  1  0
  9 15  2  0
 15 16  1  0
 16 17  2  0
 17 18  1  0
 18 19  1  0
 19 20  2  0
 19 21  1  0
 21 22  1  0
 22 23  1  0
 23 24  1  0
 24 25  2  0
 25 26  1  0
 26 27  2  0
 27 28  1  0
 28 29  2  0
 29 30  1  0
 17  7  1  0
 30 21  1  0
 14 10  2  0
 29 24  1  0
  1 31  1  0
  1 32  1  0
  1 33  1  0
  3 34  1  0
  3 35  1  0
  3 36  1  0
  4 37  1  0
  4 38  1  0
  5 39  1  0
  5 40  1  0
  8 41  1  0
 11 42  1  0
 13 43  1  0
 14 44  1  0
 15 45  1  0
 16 46  1  0
 18 47  1  0
 21 48  1  0
 22 49  1  0
 22 50  1  0
 25 51  1  0
 26 52  1  0
 27 53  1  0
 28 54  1  0
 30 55  1  0
 30 56  1  0
M  END
$$$$
