
     RDKit          3D

 58 62  0  0  0  0  0  0  0  0999 V2000
   -0.1720   -3.6064   -1.1725 C   0  0  0  0  0  0  0  0  0  0  0  0
   -0.4953   -2.3864   -0.2711 C   0  0  2  0  0  0  0  0  0  0  0  0
    0.4956   -1.3539   -0.6526 C   0  0  0  0  0  0  0  0  0  0  0  0
    1.5654   -0.9225    0.1145 C   0  0  0  0  0  0  0  0  0  0  0  0
    2.3737    0.0329   -0.3790 C   0  0  0  0  0  0  0  0  0  0  0  0
    3.5255    0.6670    0.3224 C   0  0  0  0  0  0  0  0  0  0  0  0
    4.6607    0.8328   -0.3837 C   0  0  0  0  0  0  0  0  0  0  0  0
    4.5933    0.3510   -1.6699 F   0  0  0  0  0  0  0  0  0  0  0  0
    5.8203    1.5876    0.0317 C   0  0  0  0  0  0  0  0  0  0  0  0
    6.8304    1.7514   -0.9308 C   0  0  0  0  0  0  0  0  0  0  0  0
    7.8918    2.6242   -0.6861 C   0  0  0  0  0  0  0  0  0  0  0  0
    7.9313    3.3063    0.4793 C   0  0  0  0  0  0  0  0  0  0  0  0
    9.0015    4.3922    0.6594 C   0  0  0  0  0  0  0  0  0  0  0  0
    9.7882    5.1721    0.7983 N   0  0  0  0  0  0  0  0  0  0  0  0
    6.9685    3.1414    1.4254 C   0  0  0  0  0  0  0  0  0  0  0  0
    5.9305    2.2779    1.1680 N   0  0  0  0  0  0  0  0  0  0  0  0
    2.1515    0.5805   -1.6135 C   0  0  0  0  0  0  0  0  0  0  0  0
    1.1142    0.2004   -2.4283 C   0  0  0  0  0  0  0  0  0  0  0  0
    0.2902   -0.7864   -1.9053 C   0  0  0  0  0  0  0  0  0  0  0  0
   -0.7169   -1.2044   -2.7371 F   0  0  0  0  0  0  0  0  0  0  0  0
   -0.2469   -2.9041    1.0419 N   0  0  0  0  0  0  0  0  0  0  0  0
   -0.9141   -2.6042    2.1019 C   0  0  0  0  0  0  0  0  0  0  0  0
   -0.6332   -3.1607    3.3680 N   0  0  0  0  0  0  0  0  0  0  0  0
   -2.2327   -1.4364    1.9981 S   0  0  0  0  0  0  0  0  0  0  0  0
   -2.7165   -1.2907    0.2984 C   0  0  1  0  0  0  0  0  0  0  0  0
   -4.2002   -1.3824    0.0431 C   0  0  0  0  0  0  0  0  0  0  0  0
   -4.7270   -2.5359   -0.1837 O   0  0  0  0  0  0  0  0  0  0  0  0
   -5.0425   -0.2653    0.0248 N   0  0  0  0  0  0  0  0  0  0  0  0
   -6.4583   -0.5038   -0.3484 C   0  0  0  0  0  0  0  0  0  0  0  0
   -7.2010    0.8375   -0.3693 C   0  0  0  0  0  0  0  0  0  0  0  0
   -7.0043    1.3969    0.8986 O   0  0  0  0  0  0  0  0  0  0  0  0
   -5.7435    1.9200    0.9760 C   0  0  0  0  0  0  0  0  0  0  0  0
   -4.6597    1.0757    0.3347 C   0  0  0  0  0  0  0  0  0  0  0  0
   -1.9947   -0.3880   -0.5926 C   0  0  0  0  0  0  0  0  0  0  0  0
   -1.8155   -1.9148   -0.6589 C   0  0  1  0  0  0  0  0  0  0  0  0
   -0.7841   -4.4474   -0.7838 H   0  0  0  0  0  0  0  0  0  0  0  0
    0.9170   -3.8361   -0.9314 H   0  0  0  0  0  0  0  0  0  0  0  0
   -0.3475   -3.3791   -2.2264 H   0  0  0  0  0  0  0  0  0  0  0  0
    1.7084   -1.3770    1.0621 H   0  0  0  0  0  0  0  0  0  0  0  0
    3.5153    0.9802    1.3211 H   0  0  0  0  0  0  0  0  0  0  0  0
    6.7969    1.2199   -1.8491 H   0  0  0  0  0  0  0  0  0  0  0  0
    8.6748    2.7803   -1.4374 H   0  0  0  0  0  0  0  0  0  0  0  0
    7.0540    3.6837    2.3439 H   0  0  0  0  0  0  0  0  0  0  0  0
    2.7855    1.3680   -2.0037 H   0  0  0  0  0  0  0  0  0  0  0  0
    0.9256    0.6107   -3.3959 H   0  0  0  0  0  0  0  0  0  0  0  0
   -0.4943   -2.6509    4.2300 H   0  0  0  0  0  0  0  0  0  0  0  0
   -0.5598   -4.2234    3.3823 H   0  0  0  0  0  0  0  0  0  0  0  0
   -6.5640   -1.0275   -1.3025 H   0  0  0  0  0  0  0  0  0  0  0  0
   -6.9434   -1.1097    0.4508 H   0  0  0  0  0  0  0  0  0  0  0  0
   -6.7804    1.5193   -1.1554 H   0  0  0  0  0  0  0  0  0  0  0  0
   -8.2741    0.6703   -0.5193 H   0  0  0  0  0  0  0  0  0  0  0  0
   -5.7898    2.9504    0.5639 H   0  0  0  0  0  0  0  0  0  0  0  0
   -5.5427    2.1042    2.0766 H   0  0  0  0  0  0  0  0  0  0  0  0
   -3.8188    1.0744    1.0794 H   0  0  0  0  0  0  0  0  0  0  0  0
   -4.4038    1.5788   -0.6141 H   0  0  0  0  0  0  0  0  0  0  0  0
   -1.1569    0.2239   -0.1978 H   0  0  0  0  0  0  0  0  0  0  0  0
   -2.5600    0.1246   -1.4031 H   0  0  0  0  0  0  0  0  0  0  0  0
   -2.3162   -2.3392   -1.5723 H   0  0  0  0  0  0  0  0  0  0  0  0
  2  1  1  6
  2  3  1  0
  3  4  2  0
  4  5  1  0
  5  6  1  0
  6  7  2  0
  7  8  1  0
  7  9  1  0
  9 10  2  0
 10 11  1  0
 11 12  2  0
 12 13  1  0
 13 14  3  0
 12 15  1  0
 15 16  2  0
  5 17  2  0
 17 18  1  0
 18 19  2  0
 19 20  1  0
  2 21  1  0
 21 22  2  0
 22 23  1  0
 22 24  1  0
 24 25  1  0
 25 26  1  1
 26 27  2  0
 26 28  1  0
 28 29  1  0
 29 30  1  0
 30 31  1  0
 31 32  1  0
 32 33  1  0
 25 34  1  0
 34 35  1  0
 35  2  1  0
 19  3  1  0
 35 25  1  0
 16  9  1  0
 33 28  1  0
  1 36  1  0
  1 37  1  0
  1 38  1  0
  4 39  1  0
  6 40  1  0
 10 41  1  0
 11 42  1  0
 15 43  1  0
 17 44  1  0
 18 45  1  0
 23 46  1  0
 23 47  1  0
 29 48  1  0
 29 49  1  0
 30 50  1  0
 30 51  1  0
 32 52  1  0
 32 53  1  0
 33 54  1  0
 33 55  1  0
 34 56  1  0
 34 57  1  0
 35 58  1  6
M  END
$$$$
