
     RDKit          3D

 48 50  0  0  0  0  0  0  0  0999 V2000
    2.2674   -0.9047    0.9326 C   0  0  2  0  0  0  0  0  0  0  0  0
    0.9222   -1.3621    1.3830 C   0  0  0  0  0  0  0  0  0  0  0  0
   -0.0392   -1.6668    0.3224 C   0  0  0  0  0  0  0  0  0  0  0  0
    0.0729   -2.7662   -0.3140 O   0  0  0  0  0  0  0  0  0  0  0  0
   -1.1011   -0.7491   -0.0088 N   0  0  0  0  0  0  0  0  0  0  0  0
   -1.5818    0.5506    0.4345 C   0  0  0  0  0  0  0  0  0  0  0  0
   -3.0832    0.3370    0.6924 C   0  0  1  0  0  0  0  0  0  0  0  0
   -3.7657    1.6147    0.3949 C   0  0  0  0  0  0  0  0  0  0  0  0
   -5.1607    1.5066   -0.1266 C   0  0  0  0  0  0  0  0  0  0  0  0
   -5.6340    0.0583   -0.1815 C   0  0  0  0  0  0  0  0  0  0  0  0
   -4.5939   -0.6416   -1.0680 C   0  0  0  0  0  0  0  0  0  0  0  0
   -3.3740   -0.7936   -0.2364 C   0  0  1  0  0  0  0  0  0  0  0  0
   -2.0958   -0.9991   -1.0609 C   0  0  0  0  0  0  0  0  0  0  0  0
    2.2161    0.3676    0.1055 C   0  0  0  0  0  0  0  0  0  0  0  0
    3.6077    0.7143   -0.2794 C   0  0  0  0  0  0  0  0  0  0  0  0
    4.2547    0.2980   -1.4240 C   0  0  0  0  0  0  0  0  0  0  0  0
    5.5595    0.6817   -1.6843 C   0  0  0  0  0  0  0  0  0  0  0  0
    6.2736    1.4948   -0.8172 C   0  0  0  0  0  0  0  0  0  0  0  0
    5.6559    1.9376    0.3517 C   0  0  0  0  0  0  0  0  0  0  0  0
    4.3440    1.5285    0.5744 C   0  0  0  0  0  0  0  0  0  0  0  0
    3.0820   -1.9466    0.2661 C   0  0  0  0  0  0  0  0  0  0  0  0
    2.6229   -2.5504   -0.8919 O   0  0  0  0  0  0  0  0  0  0  0  0
    4.2069   -2.3336    0.7007 O   0  0  0  0  0  0  0  0  0  0  0  0
    2.8325   -0.6357    1.8665 H   0  0  0  0  0  0  0  0  0  0  0  0
    0.5194   -0.6120    2.0868 H   0  0  0  0  0  0  0  0  0  0  0  0
    1.0848   -2.2879    1.9910 H   0  0  0  0  0  0  0  0  0  0  0  0
   -1.4333    1.2367   -0.4236 H   0  0  0  0  0  0  0  0  0  0  0  0
   -1.0726    0.9388    1.3228 H   0  0  0  0  0  0  0  0  0  0  0  0
   -3.1524    0.0450    1.7610 H   0  0  0  0  0  0  0  0  0  0  0  0
   -3.8036    2.2216    1.3319 H   0  0  0  0  0  0  0  0  0  0  0  0
   -3.1519    2.2530   -0.3012 H   0  0  0  0  0  0  0  0  0  0  0  0
   -5.1859    1.8522   -1.1844 H   0  0  0  0  0  0  0  0  0  0  0  0
   -5.8886    2.0784    0.4781 H   0  0  0  0  0  0  0  0  0  0  0  0
   -6.6455   -0.0018   -0.5753 H   0  0  0  0  0  0  0  0  0  0  0  0
   -5.5089   -0.3525    0.8380 H   0  0  0  0  0  0  0  0  0  0  0  0
   -4.4364   -0.1158   -2.0222 H   0  0  0  0  0  0  0  0  0  0  0  0
   -5.0692   -1.6414   -1.2843 H   0  0  0  0  0  0  0  0  0  0  0  0
   -3.4810   -1.7215    0.3716 H   0  0  0  0  0  0  0  0  0  0  0  0
   -2.0437   -2.0092   -1.4673 H   0  0  0  0  0  0  0  0  0  0  0  0
   -1.9476   -0.2028   -1.8055 H   0  0  0  0  0  0  0  0  0  0  0  0
    1.5777    0.2780   -0.7809 H   0  0  0  0  0  0  0  0  0  0  0  0
    1.8120    1.1510    0.7658 H   0  0  0  0  0  0  0  0  0  0  0  0
    3.7043   -0.3297   -2.0942 H   0  0  0  0  0  0  0  0  0  0  0  0
    6.0591    0.3466   -2.5919 H   0  0  0  0  0  0  0  0  0  0  0  0
    7.2929    1.8164   -0.9853 H   0  0  0  0  0  0  0  0  0  0  0  0
    6.1486    2.5752    1.0783 H   0  0  0  0  0  0  0  0  0  0  0  0
    3.8787    1.8794    1.4842 H   0  0  0  0  0  0  0  0  0  0  0  0
    3.2541   -3.1380   -1.4206 H   0  0  0  0  0  0  0  0  0  0  0  0
  1  2  1  0
  2  3  1  0
  3  4  2  0
  3  5  1  0
  5  6  1  0
  6  7  1  0
  7  8  1  0
  8  9  1  0
  9 10  1  0
 10 11  1  0
 11 12  1  0
 12 13  1  0
  1 14  1  0
 14 15  1  0
 15 16  2  0
 16 17  1  0
 17 18  2  0
 18 19  1  0
 19 20  2  0
  1 21  1  0
 21 22  1  0
 21 23  2  0
 13  5  1  0
 20 15  1  0
 12  7  1  0
  1 24  1  1
  2 25  1  0
  2 26  1  0
  6 27  1  0
  6 28  1  0
  7 29  1  1
  8 30  1  0
  8 31  1  0
  9 32  1  0
  9 33  1  0
 10 34  1  0
 10 35  1  0
 11 36  1  0
 11 37  1  0
 12 38  1  1
 13 39  1  0
 13 40  1  0
 14 41  1  0
 14 42  1  0
 16 43  1  0
 17 44  1  0
 18 45  1  0
 19 46  1  0
 20 47  1  0
 22 48  1  0
M  END
$$$$
