
     RDKit          3D

 72 75  0  0  0  0  0  0  0  0999 V2000
    8.1017    2.9864   -0.2150 C   0  0  0  0  0  0  0  0  0  0  0  0
    6.6300    3.1730   -0.2384 C   0  0  0  0  0  0  0  0  0  0  0  0
    6.2079    4.3389   -0.4281 O   0  0  0  0  0  0  0  0  0  0  0  0
    5.7084    2.1242   -0.0614 N   0  0  0  0  0  0  0  0  0  0  0  0
    4.2930    2.3995   -0.0997 C   0  0  0  0  0  0  0  0  0  0  0  0
    3.6563    1.1083   -0.6450 C   0  0  0  0  0  0  0  0  0  0  0  0
    3.7808    0.0836    0.4504 C   0  0  0  0  0  0  0  0  0  0  0  0
    3.1248   -1.1733    0.0400 C   0  0  0  0  0  0  0  0  0  0  0  0
    3.9158   -2.1801   -0.0792 O   0  0  0  0  0  0  0  0  0  0  0  0
    1.7577   -1.3029   -0.2074 N   0  0  0  0  0  0  0  0  0  0  0  0
    1.0828   -2.5344   -0.6140 C   0  0  0  0  0  0  0  0  0  0  0  0
   -0.0582   -2.5048    0.3706 C   0  0  2  0  0  0  0  0  0  0  0  0
   -1.1195   -3.4823    0.0218 C   0  0  0  0  0  0  0  0  0  0  0  0
   -1.4904   -4.3906    0.9807 C   0  0  0  0  0  0  0  0  0  0  0  0
   -2.4812   -5.3414    0.7238 C   0  0  0  0  0  0  0  0  0  0  0  0
   -3.0806   -5.3511   -0.5118 C   0  0  0  0  0  0  0  0  0  0  0  0
   -2.6841   -4.4259   -1.4498 C   0  0  0  0  0  0  0  0  0  0  0  0
   -1.7120   -3.4910   -1.2017 C   0  0  0  0  0  0  0  0  0  0  0  0
   -0.5534   -1.0784    0.2550 C   0  0  1  0  0  0  0  0  0  0  0  0
   -1.1399   -0.5930    1.4998 C   0  0  0  0  0  0  0  0  0  0  0  0
   -1.1331   -1.4110    2.4824 O   0  0  0  0  0  0  0  0  0  0  0  0
   -1.6898    0.6751    1.6766 N   0  0  0  0  0  0  0  0  0  0  0  0
   -2.2061    0.9789    3.0369 C   0  0  0  0  0  0  0  0  0  0  0  0
   -1.8106    1.6882    0.6548 C   0  0  0  0  0  0  0  0  0  0  0  0
   -3.1786    1.6492    0.0228 C   0  0  0  0  0  0  0  0  0  0  0  0
   -3.4653    0.9627   -1.1252 C   0  0  0  0  0  0  0  0  0  0  0  0
   -4.7208    0.9312   -1.6771 C   0  0  0  0  0  0  0  0  0  0  0  0
   -5.0337    0.1836   -2.9269 C   0  0  0  0  0  0  0  0  0  0  0  0
   -4.5307    0.7717   -4.0457 F   0  0  0  0  0  0  0  0  0  0  0  0
   -4.5514   -1.1293   -2.8554 F   0  0  0  0  0  0  0  0  0  0  0  0
   -6.4051    0.0784   -3.0672 F   0  0  0  0  0  0  0  0  0  0  0  0
   -5.7285    1.6240   -1.0404 C   0  0  0  0  0  0  0  0  0  0  0  0
   -5.4746    2.3323    0.1264 C   0  0  0  0  0  0  0  0  0  0  0  0
   -6.5998    3.0529    0.7571 C   0  0  0  0  0  0  0  0  0  0  0  0
   -7.1428    2.2056    1.7147 F   0  0  0  0  0  0  0  0  0  0  0  0
   -7.5807    3.2974   -0.1835 F   0  0  0  0  0  0  0  0  0  0  0  0
   -6.1562    4.2149    1.3262 F   0  0  0  0  0  0  0  0  0  0  0  0
   -4.2096    2.3398    0.6464 C   0  0  0  0  0  0  0  0  0  0  0  0
    0.7215   -0.3091   -0.1160 C   0  0  0  0  0  0  0  0  0  0  0  0
    5.2197   -0.1077    0.8266 C   0  0  0  0  0  0  0  0  0  0  0  0
    6.1924    0.7913    0.1544 C   0  0  0  0  0  0  0  0  0  0  0  0
    8.4936    3.5404   -1.1057 H   0  0  0  0  0  0  0  0  0  0  0  0
    8.5298    3.3495    0.7249 H   0  0  0  0  0  0  0  0  0  0  0  0
    8.3009    1.9150   -0.4266 H   0  0  0  0  0  0  0  0  0  0  0  0
    3.8642    2.5165    0.9166 H   0  0  0  0  0  0  0  0  0  0  0  0
    4.0035    3.2203   -0.7523 H   0  0  0  0  0  0  0  0  0  0  0  0
    4.3412    0.7784   -1.4819 H   0  0  0  0  0  0  0  0  0  0  0  0
    2.6522    1.2915   -1.0115 H   0  0  0  0  0  0  0  0  0  0  0  0
    3.2384    0.4758    1.3532 H   0  0  0  0  0  0  0  0  0  0  0  0
    1.7379   -3.4165   -0.4866 H   0  0  0  0  0  0  0  0  0  0  0  0
    0.7203   -2.4093   -1.6479 H   0  0  0  0  0  0  0  0  0  0  0  0
    0.3474   -2.6653    1.3795 H   0  0  0  0  0  0  0  0  0  0  0  0
   -1.0310   -4.3952    1.9523 H   0  0  0  0  0  0  0  0  0  0  0  0
   -2.7594   -6.0506    1.4965 H   0  0  0  0  0  0  0  0  0  0  0  0
   -3.8599   -6.0834   -0.7434 H   0  0  0  0  0  0  0  0  0  0  0  0
   -3.1539   -4.4317   -2.4225 H   0  0  0  0  0  0  0  0  0  0  0  0
   -1.3901   -2.7590   -1.9278 H   0  0  0  0  0  0  0  0  0  0  0  0
   -1.2193   -1.0534   -0.6134 H   0  0  0  0  0  0  0  0  0  0  0  0
   -2.2265    2.0514    3.2257 H   0  0  0  0  0  0  0  0  0  0  0  0
   -1.4899    0.5230    3.7507 H   0  0  0  0  0  0  0  0  0  0  0  0
   -3.1982    0.5157    3.1408 H   0  0  0  0  0  0  0  0  0  0  0  0
   -1.0881    1.5921   -0.1660 H   0  0  0  0  0  0  0  0  0  0  0  0
   -1.7395    2.6807    1.1524 H   0  0  0  0  0  0  0  0  0  0  0  0
   -2.6874    0.4191   -1.6487 H   0  0  0  0  0  0  0  0  0  0  0  0
   -6.7431    1.6256   -1.4462 H   0  0  0  0  0  0  0  0  0  0  0  0
   -4.0137    2.8990    1.5653 H   0  0  0  0  0  0  0  0  0  0  0  0
    0.5678    0.2101   -1.0989 H   0  0  0  0  0  0  0  0  0  0  0  0
    0.8619    0.4544    0.6471 H   0  0  0  0  0  0  0  0  0  0  0  0
    5.4781   -1.1750    0.5603 H   0  0  0  0  0  0  0  0  0  0  0  0
    5.3361   -0.0875    1.9494 H   0  0  0  0  0  0  0  0  0  0  0  0
    7.0820    0.8871    0.8439 H   0  0  0  0  0  0  0  0  0  0  0  0
    6.5887    0.3967   -0.8007 H   0  0  0  0  0  0  0  0  0  0  0  0
  1  2  1  0
  2  3  2  0
  2  4  1  0
  4  5  1  0
  5  6  1  0
  6  7  1  0
  7  8  1  0
  8  9  2  0
  8 10  1  0
 10 11  1  0
 11 12  1  0
 12 13  1  0
 13 14  2  0
 14 15  1  0
 15 16  2  0
 16 17  1  0
 17 18  2  0
 12 19  1  0
 19 20  1  0
 20 21  2  0
 20 22  1  0
 22 23  1  0
 22 24  1  0
 24 25  1  0
 25 26  2  0
 26 27  1  0
 27 28  1  0
 28 29  1  0
 28 30  1  0
 28 31  1  0
 27 32  2  0
 32 33  1  0
 33 34  1  0
 34 35  1  0
 34 36  1  0
 34 37  1  0
 33 38  2  0
 19 39  1  0
  7 40  1  0
 40 41  1  0
 41  4  1  0
 39 10  1  0
 18 13  1  0
 38 25  1  0
  1 42  1  0
  1 43  1  0
  1 44  1  0
  5 45  1  0
  5 46  1  0
  6 47  1  0
  6 48  1  0
  7 49  1  0
 11 50  1  0
 11 51  1  0
 12 52  1  1
 14 53  1  0
 15 54  1  0
 16 55  1  0
 17 56  1  0
 18 57  1  0
 19 58  1  6
 23 59  1  0
 23 60  1  0
 23 61  1  0
 24 62  1  0
 24 63  1  0
 26 64  1  0
 32 65  1  0
 38 66  1  0
 39 67  1  0
 39 68  1  0
 40 69  1  0
 40 70  1  0
 41 71  1  0
 41 72  1  0
M  END
$$$$
