
     RDKit          3D

 54 56  0  0  0  0  0  0  0  0999 V2000
    8.5243    2.9131   -0.3355 C   0  0  0  0  0  0  0  0  0  0  0  0
    8.6513    1.4916    0.0984 C   0  0  0  0  0  0  0  0  0  0  0  0
    7.5088    0.7133   -0.1984 O   0  0  0  0  0  0  0  0  0  0  0  0
    6.2397    0.9971    0.3014 C   0  0  0  0  0  0  0  0  0  0  0  0
    6.5088    2.0165    0.9756 O   0  0  0  0  0  0  0  0  0  0  0  0
    5.2553   -0.0223   -0.2066 C   0  0  0  0  0  0  0  0  0  0  0  0
    3.9856    0.2888    0.3215 O   0  0  0  0  0  0  0  0  0  0  0  0
    2.8522   -0.4737    0.0361 C   0  0  0  0  0  0  0  0  0  0  0  0
    2.9779   -1.5682   -0.7902 C   0  0  0  0  0  0  0  0  0  0  0  0
    1.8209   -2.2811   -1.0338 C   0  0  0  0  0  0  0  0  0  0  0  0
    0.6093   -1.9431   -0.4998 C   0  0  0  0  0  0  0  0  0  0  0  0
   -0.6577   -2.6855   -0.7391 C   0  0  0  0  0  0  0  0  0  0  0  0
   -1.4111   -2.6282    0.5740 C   0  0  0  0  0  0  0  0  0  0  0  0
   -1.8913   -1.2676    0.9143 C   0  0  1  0  0  0  0  0  0  0  0  0
   -0.7257   -0.3089    1.0067 C   0  0  0  0  0  0  0  0  0  0  0  0
    0.5028   -0.8420    0.3266 C   0  0  0  0  0  0  0  0  0  0  0  0
    1.6503   -0.0958    0.5967 C   0  0  0  0  0  0  0  0  0  0  0  0
   -2.8828   -0.7302    0.0260 N   0  0  0  0  0  0  0  0  0  0  0  0
   -4.0823   -1.4730   -0.0717 C   0  0  0  0  0  0  0  0  0  0  0  0
   -5.0158   -0.8185   -1.0555 C   0  0  2  0  0  0  0  0  0  0  0  0
   -4.3780   -0.7842   -2.3085 O   0  0  0  0  0  0  0  0  0  0  0  0
   -5.5202    0.4986   -0.6629 C   0  0  0  0  0  0  0  0  0  0  0  0
   -4.8347    1.6762   -0.8722 C   0  0  0  0  0  0  0  0  0  0  0  0
   -5.4368    2.8435   -0.4387 C   0  0  0  0  0  0  0  0  0  0  0  0
   -6.6658    2.8809    0.1799 C   0  0  0  0  0  0  0  0  0  0  0  0
   -7.3522    1.7215    0.3914 C   0  0  0  0  0  0  0  0  0  0  0  0
   -8.9224    1.6939    1.1722 Cl  0  0  0  0  0  0  0  0  0  0  0  0
   -6.7515    0.5542   -0.0413 C   0  0  0  0  0  0  0  0  0  0  0  0
    7.7753    2.9812   -1.1479 H   0  0  0  0  0  0  0  0  0  0  0  0
    9.4935    3.2362   -0.7678 H   0  0  0  0  0  0  0  0  0  0  0  0
    8.3207    3.6165    0.4956 H   0  0  0  0  0  0  0  0  0  0  0  0
    8.8499    1.4987    1.1946 H   0  0  0  0  0  0  0  0  0  0  0  0
    9.5167    1.0206   -0.3721 H   0  0  0  0  0  0  0  0  0  0  0  0
    5.6128   -1.0169    0.1188 H   0  0  0  0  0  0  0  0  0  0  0  0
    5.2521   -0.0060   -1.3179 H   0  0  0  0  0  0  0  0  0  0  0  0
    3.9029   -1.8915   -1.2450 H   0  0  0  0  0  0  0  0  0  0  0  0
    1.7802   -3.1568   -1.6612 H   0  0  0  0  0  0  0  0  0  0  0  0
   -1.1766   -2.1137   -1.5458 H   0  0  0  0  0  0  0  0  0  0  0  0
   -0.4765   -3.7368   -1.0172 H   0  0  0  0  0  0  0  0  0  0  0  0
   -0.6315   -2.8839    1.3443 H   0  0  0  0  0  0  0  0  0  0  0  0
   -2.1575   -3.4238    0.6727 H   0  0  0  0  0  0  0  0  0  0  0  0
   -2.3578   -1.2960    1.9268 H   0  0  0  0  0  0  0  0  0  0  0  0
   -0.9822    0.6282    0.4766 H   0  0  0  0  0  0  0  0  0  0  0  0
   -0.4859   -0.0533    2.0712 H   0  0  0  0  0  0  0  0  0  0  0  0
    1.6448    0.7917    1.2439 H   0  0  0  0  0  0  0  0  0  0  0  0
   -3.1598    0.2403    0.3757 H   0  0  0  0  0  0  0  0  0  0  0  0
   -4.6115   -1.5464    0.9236 H   0  0  0  0  0  0  0  0  0  0  0  0
   -3.9640   -2.5143   -0.4168 H   0  0  0  0  0  0  0  0  0  0  0  0
   -5.8652   -1.5530   -1.2233 H   0  0  0  0  0  0  0  0  0  0  0  0
   -3.6255   -0.1350   -2.3190 H   0  0  0  0  0  0  0  0  0  0  0  0
   -3.8699    1.6802   -1.3602 H   0  0  0  0  0  0  0  0  0  0  0  0
   -4.9417    3.8047   -0.5772 H   0  0  0  0  0  0  0  0  0  0  0  0
   -7.0906    3.8334    0.5006 H   0  0  0  0  0  0  0  0  0  0  0  0
   -7.3116   -0.3708    0.1335 H   0  0  0  0  0  0  0  0  0  0  0  0
  1  2  1  0
  2  3  1  0
  3  4  1  0
  4  5  2  0
  4  6  1  0
  6  7  1  0
  7  8  1  0
  8  9  2  0
  9 10  1  0
 10 11  2  0
 11 12  1  0
 12 13  1  0
 13 14  1  0
 14 15  1  0
 15 16  1  0
 16 17  2  0
 14 18  1  0
 18 19  1  0
 19 20  1  0
 20 21  1  0
 20 22  1  0
 22 23  2  0
 23 24  1  0
 24 25  2  0
 25 26  1  0
 26 27  1  0
 26 28  2  0
 17  8  1  0
 28 22  1  0
 16 11  1  0
  1 29  1  0
  1 30  1  0
  1 31  1  0
  2 32  1  0
  2 33  1  0
  6 34  1  0
  6 35  1  0
  9 36  1  0
 10 37  1  0
 12 38  1  0
 12 39  1  0
 13 40  1  0
 13 41  1  0
 14 42  1  1
 15 43  1  0
 15 44  1  0
 17 45  1  0
 18 46  1  0
 19 47  1  0
 19 48  1  0
 20 49  1  6
 21 50  1  0
 23 51  1  0
 24 52  1  0
 25 53  1  0
 28 54  1  0
M  END
$$$$
