
     RDKit          3D

 41 43  0  0  0  0  0  0  0  0999 V2000
   -2.4902   -2.6577   -0.5203 C   0  0  0  0  0  0  0  0  0  0  0  0
   -1.4988   -1.6479   -1.0528 C   0  0  0  0  0  0  0  0  0  0  0  0
   -1.5533   -0.3898   -0.4041 N   0  0  0  0  0  0  0  0  0  0  0  0
   -2.8083    0.2402   -0.4658 C   0  0  2  0  0  0  0  0  0  0  0  0
   -2.6882    1.7471   -0.5203 C   0  0  0  0  0  0  0  0  0  0  0  0
   -3.5546    2.2715    0.5774 C   0  0  0  0  0  0  0  0  0  0  0  0
   -4.2226    1.1792    1.1975 N   0  0  0  0  0  0  0  0  0  0  0  0
   -3.7650   -0.0464    0.6288 C   0  0  0  0  0  0  0  0  0  0  0  0
   -0.5825   -0.1706    0.9405 S   0  0  0  0  0  6  0  0  0  0  0  0
   -0.7898    1.1791    1.5611 O   0  0  0  0  0  0  0  0  0  0  0  0
   -0.8893   -1.2203    1.9947 O   0  0  0  0  0  0  0  0  0  0  0  0
    1.1373   -0.3205    0.5993 C   0  0  0  0  0  0  0  0  0  0  0  0
    1.7594   -1.5479    0.6974 C   0  0  0  0  0  0  0  0  0  0  0  0
    3.1113   -1.6334    0.4229 C   0  0  0  0  0  0  0  0  0  0  0  0
    3.8584   -0.5255    0.0529 C   0  0  0  0  0  0  0  0  0  0  0  0
    5.2129   -0.6092   -0.2226 C   0  0  0  0  0  0  0  0  0  0  0  0
    5.9452    0.5143   -0.5924 C   0  0  0  0  0  0  0  0  0  0  0  0
    5.3398    1.7386   -0.6935 C   0  0  0  0  0  0  0  0  0  0  0  0
    3.9883    1.8170   -0.4177 C   0  0  0  0  0  0  0  0  0  0  0  0
    3.2403    0.7105   -0.0477 C   0  0  0  0  0  0  0  0  0  0  0  0
    1.8991    0.7728    0.2289 C   0  0  0  0  0  0  0  0  0  0  0  0
   -3.5218   -2.4856   -0.8908 H   0  0  0  0  0  0  0  0  0  0  0  0
   -2.5074   -2.7355    0.5655 H   0  0  0  0  0  0  0  0  0  0  0  0
   -2.1872   -3.6785   -0.8981 H   0  0  0  0  0  0  0  0  0  0  0  0
   -0.5168   -2.1171   -1.0797 H   0  0  0  0  0  0  0  0  0  0  0  0
   -1.7920   -1.4827   -2.1323 H   0  0  0  0  0  0  0  0  0  0  0  0
   -3.2791   -0.0519   -1.4518 H   0  0  0  0  0  0  0  0  0  0  0  0
   -3.0140    2.1709   -1.5120 H   0  0  0  0  0  0  0  0  0  0  0  0
   -1.6247    2.0478   -0.4330 H   0  0  0  0  0  0  0  0  0  0  0  0
   -2.9282    2.8776    1.2617 H   0  0  0  0  0  0  0  0  0  0  0  0
   -4.2941    3.0073    0.1433 H   0  0  0  0  0  0  0  0  0  0  0  0
   -5.2533    1.3161    1.1788 H   0  0  0  0  0  0  0  0  0  0  0  0
   -4.6758   -0.5922    0.2465 H   0  0  0  0  0  0  0  0  0  0  0  0
   -3.3687   -0.6777    1.4466 H   0  0  0  0  0  0  0  0  0  0  0  0
    1.2280   -2.4530    0.9827 H   0  0  0  0  0  0  0  0  0  0  0  0
    3.6264   -2.5815    0.4913 H   0  0  0  0  0  0  0  0  0  0  0  0
    5.6584   -1.5878   -0.1334 H   0  0  0  0  0  0  0  0  0  0  0  0
    7.0023    0.4324   -0.8043 H   0  0  0  0  0  0  0  0  0  0  0  0
    5.8608    2.6505   -0.9779 H   0  0  0  0  0  0  0  0  0  0  0  0
    3.5049    2.7850   -0.4967 H   0  0  0  0  0  0  0  0  0  0  0  0
    1.4328    1.7547    0.1436 H   0  0  0  0  0  0  0  0  0  0  0  0
  1  2  1  0
  2  3  1  0
  3  4  1  0
  4  5  1  0
  5  6  1  0
  6  7  1  0
  7  8  1  0
  3  9  1  0
  9 10  2  0
  9 11  2  0
  9 12  1  0
 12 13  2  0
 13 14  1  0
 14 15  2  0
 15 16  1  0
 16 17  2  0
 17 18  1  0
 18 19  2  0
 19 20  1  0
 20 21  2  0
  8  4  1  0
 21 12  1  0
 20 15  1  0
  1 22  1  0
  1 23  1  0
  1 24  1  0
  2 25  1  0
  2 26  1  0
  4 27  1  6
  5 28  1  0
  5 29  1  0
  6 30  1  0
  6 31  1  0
  7 32  1  0
  8 33  1  0
  8 34  1  0
 13 35  1  0
 14 36  1  0
 16 37  1  0
 17 38  1  0
 18 39  1  0
 19 40  1  0
 21 41  1  0
M  END
$$$$
