
     RDKit          3D

 46 50  0  0  0  0  0  0  0  0999 V2000
    4.5503   -0.9095    1.4944 O   0  0  0  0  0  0  0  0  0  0  0  0
    4.7467   -0.2502    0.4244 C   0  0  0  0  0  0  0  0  0  0  0  0
    6.0457   -0.3064   -0.1044 N   0  0  0  0  0  0  0  0  0  0  0  0
    7.1268   -1.0649    0.5106 C   0  0  0  0  0  0  0  0  0  0  0  0
    8.4250   -0.2608    0.6152 C   0  0  0  0  0  0  0  0  0  0  0  0
    8.3226   -1.4277   -0.2926 C   0  0  0  0  0  0  0  0  0  0  0  0
    3.6258    0.4842   -0.1360 C   0  0  0  0  0  0  0  0  0  0  0  0
    3.7895    1.2115   -1.2914 C   0  0  0  0  0  0  0  0  0  0  0  0
    2.7018    1.8954   -1.7927 C   0  0  0  0  0  0  0  0  0  0  0  0
    1.4868    1.8490   -1.1513 C   0  0  0  0  0  0  0  0  0  0  0  0
    0.1184    2.7242   -1.8039 Cl  0  0  0  0  0  0  0  0  0  0  0  0
    1.2823    1.1308    0.0099 C   0  0  0  0  0  0  0  0  0  0  0  0
    0.0339    1.0714    0.6863 N   0  0  0  0  0  0  0  0  0  0  0  0
   -1.1396    0.5593    0.0554 C   0  0  0  0  0  0  0  0  0  0  0  0
   -1.0557    0.1230   -1.2124 N   0  0  0  0  0  0  0  0  0  0  0  0
   -2.1232   -0.3599   -1.8335 N   0  0  0  0  0  0  0  0  0  0  0  0
   -3.3244   -0.4352   -1.2331 C   0  0  0  0  0  0  0  0  0  0  0  0
   -3.4895   -0.0077    0.0650 C   0  0  0  0  0  0  0  0  0  0  0  0
   -2.3532    0.4937    0.6911 C   0  0  0  0  0  0  0  0  0  0  0  0
   -2.7689    0.8487    1.9567 C   0  0  0  0  0  0  0  0  0  0  0  0
   -4.0968    0.5624    2.0568 N   0  0  0  0  0  0  0  0  0  0  0  0
   -4.5309    0.0447    0.9123 N   0  0  0  0  0  0  0  0  0  0  0  0
   -5.8823   -0.3809    0.6415 C   0  0  0  0  0  0  0  0  0  0  0  0
   -6.5061   -1.3391    1.4134 C   0  0  0  0  0  0  0  0  0  0  0  0
   -5.8337   -1.8924    2.4493 F   0  0  0  0  0  0  0  0  0  0  0  0
   -7.8098   -1.7504    1.1529 C   0  0  0  0  0  0  0  0  0  0  0  0
   -8.4896   -1.1788    0.0913 C   0  0  0  0  0  0  0  0  0  0  0  0
   -7.8497   -0.2217   -0.6702 C   0  0  0  0  0  0  0  0  0  0  0  0
   -6.5613    0.1953   -0.4252 C   0  0  0  0  0  0  0  0  0  0  0  0
   -5.9587    1.1278   -1.1791 F   0  0  0  0  0  0  0  0  0  0  0  0
    2.3799    0.4552    0.4942 C   0  0  0  0  0  0  0  0  0  0  0  0
    6.2645    0.2117   -0.9755 H   0  0  0  0  0  0  0  0  0  0  0  0
    6.8915   -1.6187    1.4423 H   0  0  0  0  0  0  0  0  0  0  0  0
    9.0357   -0.3570    1.5226 H   0  0  0  0  0  0  0  0  0  0  0  0
    8.4770    0.7283    0.1432 H   0  0  0  0  0  0  0  0  0  0  0  0
    8.2406   -1.2343   -1.3856 H   0  0  0  0  0  0  0  0  0  0  0  0
    8.8151   -2.3801   -0.0195 H   0  0  0  0  0  0  0  0  0  0  0  0
    4.7579    1.2353   -1.7832 H   0  0  0  0  0  0  0  0  0  0  0  0
    2.8575    2.4600   -2.7032 H   0  0  0  0  0  0  0  0  0  0  0  0
    0.0118    1.4202    1.6696 H   0  0  0  0  0  0  0  0  0  0  0  0
   -4.1884   -0.8425   -1.7816 H   0  0  0  0  0  0  0  0  0  0  0  0
   -2.1178    1.2733    2.6968 H   0  0  0  0  0  0  0  0  0  0  0  0
   -8.2941   -2.4991    1.7579 H   0  0  0  0  0  0  0  0  0  0  0  0
   -9.5094   -1.4944   -0.1198 H   0  0  0  0  0  0  0  0  0  0  0  0
   -8.3783    0.2309   -1.5054 H   0  0  0  0  0  0  0  0  0  0  0  0
    2.2740   -0.1245    1.4036 H   0  0  0  0  0  0  0  0  0  0  0  0
  1  2  2  0
  2  3  1  0
  3  4  1  0
  4  5  1  0
  5  6  1  0
  2  7  1  0
  7  8  2  0
  8  9  1  0
  9 10  2  0
 10 11  1  0
 10 12  1  0
 12 13  1  0
 13 14  1  0
 14 15  2  0
 15 16  1  0
 16 17  2  0
 17 18  1  0
 18 19  2  0
 19 20  1  0
 20 21  2  0
 21 22  1  0
 22 23  1  0
 23 24  2  0
 24 25  1  0
 24 26  1  0
 26 27  2  0
 27 28  1  0
 28 29  2  0
 29 30  1  0
 12 31  2  0
  6  4  1  0
 31  7  1  0
 19 14  1  0
 29 23  1  0
 22 18  1  0
  3 32  1  0
  4 33  1  0
  5 34  1  0
  5 35  1  0
  6 36  1  0
  6 37  1  0
  8 38  1  0
  9 39  1  0
 13 40  1  0
 17 41  1  0
 20 42  1  0
 26 43  1  0
 27 44  1  0
 28 45  1  0
 31 46  1  0
M  END
$$$$
