
     RDKit          3D

106110  0  0  0  0  0  0  0  0999 V2000
    8.5634   -2.4488    1.6024 N   0  0  0  0  0  0  0  0  0  0  0  0
    7.2547   -2.1887    2.1956 C   0  0  0  0  0  0  0  0  0  0  0  0
    7.2698   -0.7661    2.6808 C   0  0  0  0  0  0  0  0  0  0  0  0
    5.8722   -0.2329    2.9227 C   0  0  0  0  0  0  0  0  0  0  0  0
    5.1482   -0.3041    1.6723 N   0  0  0  0  0  0  0  0  0  0  0  0
    3.9469    0.4439    1.5316 C   0  0  0  0  0  0  0  0  0  0  0  0
    3.5167    1.1537    2.4721 O   0  0  0  0  0  0  0  0  0  0  0  0
    3.1750    0.4023    0.2672 C   0  0  0  0  0  0  0  0  0  0  0  0
    1.9683    1.2914    0.2525 C   0  0  1  0  0  0  0  0  0  0  0  0
    2.2561    2.7301    0.4343 C   0  0  0  0  0  0  0  0  0  0  0  0
    3.1167    3.3887   -0.5365 C   0  0  0  0  0  0  0  0  0  0  0  0
    2.5917    4.0846   -1.5926 C   0  0  0  0  0  0  0  0  0  0  0  0
    3.3609    4.7222   -2.5676 C   0  0  0  0  0  0  0  0  0  0  0  0
    4.7373    4.6459   -2.4570 C   0  0  0  0  0  0  0  0  0  0  0  0
    5.3124    3.9593   -1.4132 C   0  0  0  0  0  0  0  0  0  0  0  0
    4.5069    3.3462   -0.4767 C   0  0  0  0  0  0  0  0  0  0  0  0
    1.1091    0.9313   -0.8990 C   0  0  0  0  0  0  0  0  0  0  0  0
    0.8217    1.6836   -1.8560 O   0  0  0  0  0  0  0  0  0  0  0  0
    0.5159   -0.3806   -0.9954 N   0  0  0  0  0  0  0  0  0  0  0  0
   -0.3256   -0.7316   -2.1231 C   0  0  1  0  0  0  0  0  0  0  0  0
    0.2232   -1.9139   -2.8741 C   0  0  0  0  0  0  0  0  0  0  0  0
   -0.6499   -2.2354   -4.0063 C   0  0  0  0  0  0  0  0  0  0  0  0
   -1.7152   -3.0864   -4.1091 C   0  0  0  0  0  0  0  0  0  0  0  0
   -2.1857   -3.0538   -5.3578 N   0  0  0  0  0  0  0  0  0  0  0  0
   -1.4189   -2.1823   -6.0464 C   0  0  0  0  0  0  0  0  0  0  0  0
   -0.4842   -1.6799   -5.2367 N   0  0  0  0  0  0  0  0  0  0  0  0
   -1.7449   -0.8867   -1.7119 C   0  0  0  0  0  0  0  0  0  0  0  0
   -2.6102   -1.0458   -2.5790 O   0  0  0  0  0  0  0  0  0  0  0  0
   -2.1848   -0.8634   -0.3486 N   0  0  0  0  0  0  0  0  0  0  0  0
   -3.5555   -1.0019    0.0367 C   0  0  1  0  0  0  0  0  0  0  0  0
   -3.8832   -2.4090    0.4105 C   0  0  0  0  0  0  0  0  0  0  0  0
   -3.1714   -3.0488    1.5245 C   0  0  0  0  0  0  0  0  0  0  0  0
   -1.6915   -3.1721    1.4158 C   0  0  0  0  0  0  0  0  0  0  0  0
   -1.2809   -4.4736    2.1233 C   0  0  0  0  0  0  0  0  0  0  0  0
   -2.1039   -4.6842    3.3701 C   0  0  0  0  0  0  0  0  0  0  0  0
   -3.5205   -5.0472    2.9484 C   0  0  0  0  0  0  0  0  0  0  0  0
   -3.7229   -4.4939    1.5687 C   0  0  0  0  0  0  0  0  0  0  0  0
   -4.0244    0.0161    1.0183 C   0  0  1  0  0  0  0  0  0  0  0  0
   -3.3097   -0.0514    2.2361 O   0  0  0  0  0  0  0  0  0  0  0  0
   -3.8790    1.4423    0.4501 C   0  0  1  0  0  0  0  0  0  0  0  0
   -4.5477    1.5489   -0.7480 O   0  0  0  0  0  0  0  0  0  0  0  0
   -4.4179    2.4486    1.4272 C   0  0  0  0  0  0  0  0  0  0  0  0
   -4.3394    3.8644    1.0682 C   0  0  0  0  0  0  0  0  0  0  0  0
   -5.0779    4.3472   -0.0940 C   0  0  0  0  0  0  0  0  0  0  0  0
   -4.9228    5.7177   -0.3928 C   0  0  0  0  0  0  0  0  0  0  0  0
   -5.5608    6.2895   -1.4640 C   0  0  0  0  0  0  0  0  0  0  0  0
   -6.3660    5.5111   -2.2606 C   0  0  0  0  0  0  0  0  0  0  0  0
   -6.5146    4.1622   -1.9605 C   0  0  0  0  0  0  0  0  0  0  0  0
   -5.8719    3.6600   -0.9086 N   0  0  0  0  0  0  0  0  0  0  0  0
    5.6863   -1.1343    0.6183 C   0  0  0  0  0  0  0  0  0  0  0  0
    6.1290   -2.4354    1.2108 C   0  0  0  0  0  0  0  0  0  0  0  0
    8.5385   -3.1446    0.8452 H   0  0  0  0  0  0  0  0  0  0  0  0
    9.2417   -2.7261    2.3350 H   0  0  0  0  0  0  0  0  0  0  0  0
    7.1473   -2.8916    3.0443 H   0  0  0  0  0  0  0  0  0  0  0  0
    7.8251   -0.7384    3.6293 H   0  0  0  0  0  0  0  0  0  0  0  0
    7.7475   -0.1402    1.8984 H   0  0  0  0  0  0  0  0  0  0  0  0
    5.9648    0.8585    3.1687 H   0  0  0  0  0  0  0  0  0  0  0  0
    5.3616   -0.6937    3.7725 H   0  0  0  0  0  0  0  0  0  0  0  0
    3.8179    0.5273   -0.6213 H   0  0  0  0  0  0  0  0  0  0  0  0
    2.8056   -0.6653    0.1968 H   0  0  0  0  0  0  0  0  0  0  0  0
    1.3241    1.0010    1.1590 H   0  0  0  0  0  0  0  0  0  0  0  0
    2.5953    2.9945    1.4598 H   0  0  0  0  0  0  0  0  0  0  0  0
    1.2471    3.2585    0.3650 H   0  0  0  0  0  0  0  0  0  0  0  0
    1.5150    4.2169   -1.7502 H   0  0  0  0  0  0  0  0  0  0  0  0
    2.9109    5.2659   -3.3947 H   0  0  0  0  0  0  0  0  0  0  0  0
    5.3921    5.1167   -3.1769 H   0  0  0  0  0  0  0  0  0  0  0  0
    6.3988    3.8805   -1.2951 H   0  0  0  0  0  0  0  0  0  0  0  0
    4.9977    2.8191    0.3306 H   0  0  0  0  0  0  0  0  0  0  0  0
    0.6962   -1.0732   -0.2481 H   0  0  0  0  0  0  0  0  0  0  0  0
   -0.3193    0.1299   -2.8181 H   0  0  0  0  0  0  0  0  0  0  0  0
    1.2159   -1.6144   -3.2581 H   0  0  0  0  0  0  0  0  0  0  0  0
    0.4192   -2.7847   -2.2122 H   0  0  0  0  0  0  0  0  0  0  0  0
   -2.1102   -3.6847   -3.3133 H   0  0  0  0  0  0  0  0  0  0  0  0
   -1.5831   -1.9565   -7.1125 H   0  0  0  0  0  0  0  0  0  0  0  0
    0.2607   -0.9706   -5.5034 H   0  0  0  0  0  0  0  0  0  0  0  0
   -1.4421   -0.7324    0.3613 H   0  0  0  0  0  0  0  0  0  0  0  0
   -4.1795   -0.8491   -0.9025 H   0  0  0  0  0  0  0  0  0  0  0  0
   -4.9803   -2.4749    0.6196 H   0  0  0  0  0  0  0  0  0  0  0  0
   -3.7354   -3.0347   -0.5084 H   0  0  0  0  0  0  0  0  0  0  0  0
   -3.4078   -2.6428    2.5303 H   0  0  0  0  0  0  0  0  0  0  0  0
   -1.2349   -2.3749    2.0446 H   0  0  0  0  0  0  0  0  0  0  0  0
   -1.2886   -3.2338    0.4045 H   0  0  0  0  0  0  0  0  0  0  0  0
   -0.1917   -4.4515    2.3702 H   0  0  0  0  0  0  0  0  0  0  0  0
   -1.4223   -5.3597    1.4746 H   0  0  0  0  0  0  0  0  0  0  0  0
   -2.1519   -3.7243    3.9083 H   0  0  0  0  0  0  0  0  0  0  0  0
   -1.6252   -5.4651    3.9753 H   0  0  0  0  0  0  0  0  0  0  0  0
   -3.6991   -6.1295    2.9891 H   0  0  0  0  0  0  0  0  0  0  0  0
   -4.2369   -4.5186    3.6182 H   0  0  0  0  0  0  0  0  0  0  0  0
   -4.8354   -4.3728    1.4122 H   0  0  0  0  0  0  0  0  0  0  0  0
   -3.3021   -5.1000    0.7555 H   0  0  0  0  0  0  0  0  0  0  0  0
   -5.0839   -0.1038    1.2723 H   0  0  0  0  0  0  0  0  0  0  0  0
   -2.6384    0.6573    2.2675 H   0  0  0  0  0  0  0  0  0  0  0  0
   -2.8049    1.6883    0.2992 H   0  0  0  0  0  0  0  0  0  0  0  0
   -5.3178    0.9166   -0.8204 H   0  0  0  0  0  0  0  0  0  0  0  0
   -3.8894    2.3228    2.4268 H   0  0  0  0  0  0  0  0  0  0  0  0
   -5.5009    2.1953    1.6558 H   0  0  0  0  0  0  0  0  0  0  0  0
   -4.7374    4.4662    1.9499 H   0  0  0  0  0  0  0  0  0  0  0  0
   -3.2809    4.2488    0.9900 H   0  0  0  0  0  0  0  0  0  0  0  0
   -4.2939    6.3403    0.2252 H   0  0  0  0  0  0  0  0  0  0  0  0
   -5.4426    7.3603   -1.7027 H   0  0  0  0  0  0  0  0  0  0  0  0
   -6.9027    5.8817   -3.1215 H   0  0  0  0  0  0  0  0  0  0  0  0
   -7.1625    3.5473   -2.6070 H   0  0  0  0  0  0  0  0  0  0  0  0
    5.0116   -1.2382   -0.2366 H   0  0  0  0  0  0  0  0  0  0  0  0
    6.6177   -0.6224    0.2525 H   0  0  0  0  0  0  0  0  0  0  0  0
    5.2781   -2.8910    1.7252 H   0  0  0  0  0  0  0  0  0  0  0  0
    6.4694   -3.1298    0.4271 H   0  0  0  0  0  0  0  0  0  0  0  0
  1  2  1  0
  2  3  1  0
  3  4  1  0
  4  5  1  0
  5  6  1  0
  6  7  2  0
  6  8  1  0
  8  9  1  0
  9 10  1  0
 10 11  1  0
 11 12  2  0
 12 13  1  0
 13 14  2  0
 14 15  1  0
 15 16  2  0
  9 17  1  0
 17 18  2  0
 17 19  1  0
 19 20  1  0
 20 21  1  0
 21 22  1  0
 22 23  2  0
 23 24  1  0
 24 25  2  0
 25 26  1  0
 20 27  1  0
 27 28  2  0
 27 29  1  0
 29 30  1  0
 30 31  1  0
 31 32  1  0
 32 33  1  0
 33 34  1  0
 34 35  1  0
 35 36  1  0
 36 37  1  0
 30 38  1  0
 38 39  1  0
 38 40  1  0
 40 41  1  0
 40 42  1  0
 42 43  1  0
 43 44  1  0
 44 45  2  0
 45 46  1  0
 46 47  2  0
 47 48  1  0
 48 49  2  0
  5 50  1  0
 50 51  1  0
 51  2  1  0
 16 11  1  0
 26 22  1  0
 37 32  1  0
 49 44  1  0
  1 52  1  0
  1 53  1  0
  2 54  1  0
  3 55  1  0
  3 56  1  0
  4 57  1  0
  4 58  1  0
  8 59  1  0
  8 60  1  0
  9 61  1  1
 10 62  1  0
 10 63  1  0
 12 64  1  0
 13 65  1  0
 14 66  1  0
 15 67  1  0
 16 68  1  0
 19 69  1  0
 20 70  1  6
 21 71  1  0
 21 72  1  0
 23 73  1  0
 25 74  1  0
 26 75  1  0
 29 76  1  0
 30 77  1  6
 31 78  1  0
 31 79  1  0
 32 80  1  0
 33 81  1  0
 33 82  1  0
 34 83  1  0
 34 84  1  0
 35 85  1  0
 35 86  1  0
 36 87  1  0
 36 88  1  0
 37 89  1  0
 37 90  1  0
 38 91  1  1
 39 92  1  0
 40 93  1  6
 41 94  1  0
 42 95  1  0
 42 96  1  0
 43 97  1  0
 43 98  1  0
 45 99  1  0
 46100  1  0
 47101  1  0
 48102  1  0
 50103  1  0
 50104  1  0
 51105  1  0
 51106  1  0
M  END
$$$$
