
     RDKit          3D

 45 49  0  0  0  0  0  0  0  0999 V2000
    3.6094    4.9312   -0.3083 F   0  0  0  0  0  0  0  0  0  0  0  0
    3.3382    3.5917   -0.1551 C   0  0  0  0  0  0  0  0  0  0  0  0
    4.0136    2.8174    0.7638 C   0  0  0  0  0  0  0  0  0  0  0  0
    3.7353    1.4685    0.9187 C   0  0  0  0  0  0  0  0  0  0  0  0
    2.7706    0.8699    0.1504 C   0  0  0  0  0  0  0  0  0  0  0  0
    2.5120   -0.5467    0.3712 C   0  0  0  0  0  0  0  0  0  0  0  0
    3.3702   -1.5686    0.3221 N   0  0  0  0  0  0  0  0  0  0  0  0
    2.6989   -2.6886    0.5946 C   0  0  0  0  0  0  0  0  0  0  0  0
    1.3707   -2.4071    0.8293 N   0  0  0  0  0  0  0  0  0  0  0  0
    0.3588   -3.3868    1.1024 C   0  0  0  0  0  0  0  0  0  0  0  0
   -0.0634   -4.0379   -0.2032 C   0  0  0  0  0  0  0  0  0  0  0  0
   -0.5501   -3.1213   -1.0532 F   0  0  0  0  0  0  0  0  0  0  0  0
    1.0697   -4.6594   -0.7662 F   0  0  0  0  0  0  0  0  0  0  0  0
    1.2430   -1.0879    0.6951 C   0  0  0  0  0  0  0  0  0  0  0  0
    0.1088   -0.2104    0.8784 C   0  0  0  0  0  0  0  0  0  0  0  0
    0.1146    0.6380    2.0005 C   0  0  0  0  0  0  0  0  0  0  0  0
   -0.9110    1.5250    2.2304 C   0  0  0  0  0  0  0  0  0  0  0  0
   -1.9847    1.6235    1.3799 C   0  0  0  0  0  0  0  0  0  0  0  0
   -3.0825    2.4040    1.4045 N   0  0  0  0  0  0  0  0  0  0  0  0
   -3.7837    2.0741    0.3315 C   0  0  0  0  0  0  0  0  0  0  0  0
   -3.1369    1.0652   -0.4038 C   0  0  0  0  0  0  0  0  0  0  0  0
   -3.6330    0.4631   -1.6338 C   0  0  0  0  0  0  0  0  0  0  0  0
   -2.8298   -0.0011   -2.7690 C   0  0  0  0  0  0  0  0  0  0  0  0
   -3.5544   -0.9790   -1.9651 C   0  0  0  0  0  0  0  0  0  0  0  0
   -2.0028    0.8166    0.3026 N   0  0  0  0  0  0  0  0  0  0  0  0
   -0.9795   -0.0658    0.0756 C   0  0  0  0  0  0  0  0  0  0  0  0
    2.1098    1.6569   -0.7593 C   0  0  0  0  0  0  0  0  0  0  0  0
    2.3718    3.0019   -0.9279 C   0  0  0  0  0  0  0  0  0  0  0  0
    4.7729    3.3377    1.3547 H   0  0  0  0  0  0  0  0  0  0  0  0
    4.3173    0.9254    1.6682 H   0  0  0  0  0  0  0  0  0  0  0  0
    3.0696   -3.7231    0.6454 H   0  0  0  0  0  0  0  0  0  0  0  0
   -0.5534   -2.9876    1.5427 H   0  0  0  0  0  0  0  0  0  0  0  0
    0.7723   -4.2586    1.6975 H   0  0  0  0  0  0  0  0  0  0  0  0
   -0.7751   -4.8911   -0.0122 H   0  0  0  0  0  0  0  0  0  0  0  0
    0.9157    0.6164    2.7036 H   0  0  0  0  0  0  0  0  0  0  0  0
   -0.9176    2.1938    3.1015 H   0  0  0  0  0  0  0  0  0  0  0  0
   -4.7265    2.4961    0.0264 H   0  0  0  0  0  0  0  0  0  0  0  0
   -4.6249    0.9061   -1.9774 H   0  0  0  0  0  0  0  0  0  0  0  0
   -1.7342    0.1113   -2.8489 H   0  0  0  0  0  0  0  0  0  0  0  0
   -3.2390    0.1229   -3.8321 H   0  0  0  0  0  0  0  0  0  0  0  0
   -4.4576   -1.4845   -2.4341 H   0  0  0  0  0  0  0  0  0  0  0  0
   -3.1595   -1.6397   -1.1923 H   0  0  0  0  0  0  0  0  0  0  0  0
   -1.0780   -0.6482   -0.7969 H   0  0  0  0  0  0  0  0  0  0  0  0
    1.3412    1.1908   -1.3776 H   0  0  0  0  0  0  0  0  0  0  0  0
    1.7933    3.5460   -1.6743 H   0  0  0  0  0  0  0  0  0  0  0  0
  1  2  1  0
  2  3  2  0
  3  4  1  0
  4  5  2  0
  5  6  1  0
  6  7  1  0
  7  8  2  0
  8  9  1  0
  9 10  1  0
 10 11  1  0
 11 12  1  0
 11 13  1  0
  9 14  1  0
 14 15  1  0
 15 16  1  0
 16 17  2  0
 17 18  1  0
 18 19  2  0
 19 20  1  0
 20 21  2  0
 21 22  1  0
 22 23  1  0
 23 24  1  0
 21 25  1  0
 25 26  1  0
  5 27  1  0
 27 28  2  0
 28  2  1  0
 14  6  2  0
 26 15  2  0
 25 18  1  0
 24 22  1  0
  3 29  1  0
  4 30  1  0
  8 31  1  0
 10 32  1  0
 10 33  1  0
 11 34  1  0
 16 35  1  0
 17 36  1  0
 20 37  1  0
 22 38  1  0
 23 39  1  0
 23 40  1  0
 24 41  1  0
 24 42  1  0
 26 43  1  0
 27 44  1  0
 28 45  1  0
M  END
$$$$
