
     RDKit          3D

 35 36  0  0  0  0  0  0  0  0999 V2000
    1.0853   -1.8346    1.4575 C   0  0  1  0  0  0  0  0  0  0  0  0
    0.7841   -2.1883    2.7597 F   0  0  0  0  0  0  0  0  0  0  0  0
   -0.2448   -1.7240    0.7332 C   0  0  0  0  0  0  0  0  0  0  0  0
   -0.6781   -0.3563    1.2211 C   0  0  1  0  0  0  0  0  0  0  0  0
    0.4906    0.3758    1.0278 O   0  0  0  0  0  0  0  0  0  0  0  0
    1.5379   -0.3935    1.4524 C   0  0  2  0  0  0  0  0  0  0  0  0
    2.7402   -0.3016    0.5133 C   0  0  0  0  0  0  0  0  0  0  0  0
    3.2358    0.9715    0.3855 O   0  0  0  0  0  0  0  0  0  0  0  0
    4.5669    1.0513   -0.6586 P   0  0  0  0  0  0  0  0  0  0  0  0
    5.2477    2.5972   -0.5386 O   0  0  0  0  0  0  0  0  0  0  0  0
    5.7435   -0.0979   -0.1922 O   0  0  0  0  0  0  0  0  0  0  0  0
    4.1570    0.8716   -2.0997 O   0  0  0  0  0  0  0  0  0  0  0  0
   -1.7937    0.1874    0.5254 N   0  0  0  0  0  0  0  0  0  0  0  0
   -2.5900   -0.4548   -0.3498 C   0  0  0  0  0  0  0  0  0  0  0  0
   -3.6518    0.1336   -0.9859 C   0  0  0  0  0  0  0  0  0  0  0  0
   -4.4994   -0.6229   -1.9442 C   0  0  0  0  0  0  0  0  0  0  0  0
   -3.9461    1.4664   -0.7324 C   0  0  0  0  0  0  0  0  0  0  0  0
   -4.8941    2.0468   -1.2801 O   0  0  0  0  0  0  0  0  0  0  0  0
   -3.1238    2.0617    0.1464 N   0  0  0  0  0  0  0  0  0  0  0  0
   -2.0745    1.4811    0.7754 C   0  0  0  0  0  0  0  0  0  0  0  0
   -1.4191    2.2066    1.5681 O   0  0  0  0  0  0  0  0  0  0  0  0
    1.7740   -2.5333    0.9656 H   0  0  0  0  0  0  0  0  0  0  0  0
   -0.9585   -2.5171    1.0363 H   0  0  0  0  0  0  0  0  0  0  0  0
   -0.0126   -1.7238   -0.3524 H   0  0  0  0  0  0  0  0  0  0  0  0
   -0.8355   -0.4865    2.3298 H   0  0  0  0  0  0  0  0  0  0  0  0
    1.8174   -0.0657    2.4841 H   0  0  0  0  0  0  0  0  0  0  0  0
    2.3305   -0.6122   -0.4917 H   0  0  0  0  0  0  0  0  0  0  0  0
    3.4939   -1.0759    0.7584 H   0  0  0  0  0  0  0  0  0  0  0  0
    5.4925    2.8484    0.3825 H   0  0  0  0  0  0  0  0  0  0  0  0
    6.0800   -0.5637   -0.9934 H   0  0  0  0  0  0  0  0  0  0  0  0
   -2.3333   -1.4947   -0.5259 H   0  0  0  0  0  0  0  0  0  0  0  0
   -4.3819   -1.7180   -1.8140 H   0  0  0  0  0  0  0  0  0  0  0  0
   -4.2407   -0.2934   -2.9546 H   0  0  0  0  0  0  0  0  0  0  0  0
   -5.5528   -0.3236   -1.7181 H   0  0  0  0  0  0  0  0  0  0  0  0
   -3.3467    3.0824    0.3426 H   0  0  0  0  0  0  0  0  0  0  0  0
  1  2  1  0
  1  3  1  0
  3  4  1  0
  4  5  1  0
  5  6  1  0
  6  7  1  0
  7  8  1  0
  8  9  1  0
  9 10  1  0
  9 11  1  0
  9 12  2  0
  4 13  1  0
 13 14  1  0
 14 15  2  0
 15 16  1  0
 15 17  1  0
 17 18  2  0
 17 19  1  0
 19 20  1  0
 20 21  2  0
  6  1  1  0
 20 13  1  0
  1 22  1  6
  3 23  1  0
  3 24  1  0
  4 25  1  1
  6 26  1  1
  7 27  1  0
  7 28  1  0
 10 29  1  0
 11 30  1  0
 14 31  1  0
 16 32  1  0
 16 33  1  0
 16 34  1  0
 19 35  1  0
M  END
$$$$
