
     RDKit          3D

 47 50  0  0  0  0  0  0  0  0999 V2000
   -4.2549   -3.4739    1.0869 C   0  0  0  0  0  0  0  0  0  0  0  0
   -4.7292   -2.1979    0.4710 C   0  0  0  0  0  0  0  0  0  0  0  0
   -3.6149   -1.4696   -0.0665 N   0  0  0  0  0  0  0  0  0  0  0  0
   -2.8787   -0.5595    0.6046 C   0  0  0  0  0  0  0  0  0  0  0  0
   -1.9282   -0.1150   -0.2773 C   0  0  0  0  0  0  0  0  0  0  0  0
   -0.8482    0.8924   -0.0657 C   0  0  1  0  0  0  0  0  0  0  0  0
    0.3326    0.1390    0.4282 C   0  0  0  0  0  0  0  0  0  0  0  0
    0.2274   -0.4648    1.6565 C   0  0  0  0  0  0  0  0  0  0  0  0
    1.2616   -1.1793    2.1942 C   0  0  0  0  0  0  0  0  0  0  0  0
    2.4273   -1.2907    1.4840 C   0  0  0  0  0  0  0  0  0  0  0  0
    2.5656   -0.6967    0.2481 C   0  0  0  0  0  0  0  0  0  0  0  0
    3.8241   -0.8445   -0.4634 C   0  0  0  0  0  0  0  0  0  0  0  0
    5.0723   -0.7019    0.1045 C   0  0  0  0  0  0  0  0  0  0  0  0
    6.2324   -0.8606   -0.6544 C   0  0  0  0  0  0  0  0  0  0  0  0
    6.1574   -1.1650   -1.9957 C   0  0  0  0  0  0  0  0  0  0  0  0
    4.9315   -1.3002   -2.5318 N   0  0  0  0  0  0  0  0  0  0  0  0
    3.7871   -1.1489   -1.8064 C   0  0  0  0  0  0  0  0  0  0  0  0
    2.5796   -1.2996   -2.4117 F   0  0  0  0  0  0  0  0  0  0  0  0
    1.4994    0.0174   -0.2636 C   0  0  0  0  0  0  0  0  0  0  0  0
   -0.6321    1.5756   -1.2731 N   0  0  0  0  0  0  0  0  0  0  0  0
   -0.8627    2.8215   -1.1661 C   0  0  0  0  0  0  0  0  0  0  0  0
   -0.7445    3.8268   -2.2040 N   0  0  0  0  0  0  0  0  0  0  0  0
   -1.2720    3.1365    0.1553 N   0  0  0  0  0  0  0  0  0  0  0  0
   -1.6277    4.4531    0.6833 C   0  0  0  0  0  0  0  0  0  0  0  0
   -1.2780    1.9310    0.8961 C   0  0  0  0  0  0  0  0  0  0  0  0
   -1.5800    1.7724    2.1016 O   0  0  0  0  0  0  0  0  0  0  0  0
   -2.1040   -0.7707   -1.4872 C   0  0  0  0  0  0  0  0  0  0  0  0
   -3.1549   -1.5909   -1.2988 N   0  0  0  0  0  0  0  0  0  0  0  0
   -3.6637   -3.2355    1.9744 H   0  0  0  0  0  0  0  0  0  0  0  0
   -3.6171   -4.0147    0.3630 H   0  0  0  0  0  0  0  0  0  0  0  0
   -5.1414   -4.1102    1.3176 H   0  0  0  0  0  0  0  0  0  0  0  0
   -5.4577   -2.3470   -0.3601 H   0  0  0  0  0  0  0  0  0  0  0  0
   -5.1965   -1.5844    1.2619 H   0  0  0  0  0  0  0  0  0  0  0  0
   -2.9953   -0.2334    1.6183 H   0  0  0  0  0  0  0  0  0  0  0  0
   -0.7002   -0.3875    2.2460 H   0  0  0  0  0  0  0  0  0  0  0  0
    1.1932   -1.6617    3.1631 H   0  0  0  0  0  0  0  0  0  0  0  0
    3.2661   -1.8497    1.8810 H   0  0  0  0  0  0  0  0  0  0  0  0
    5.1113   -0.4631    1.1578 H   0  0  0  0  0  0  0  0  0  0  0  0
    7.2104   -0.7508   -0.2179 H   0  0  0  0  0  0  0  0  0  0  0  0
    7.0580   -1.2936   -2.6090 H   0  0  0  0  0  0  0  0  0  0  0  0
    1.5885    0.4879   -1.2265 H   0  0  0  0  0  0  0  0  0  0  0  0
   -1.3460    3.8260   -3.0426 H   0  0  0  0  0  0  0  0  0  0  0  0
   -0.0317    4.5638   -2.0909 H   0  0  0  0  0  0  0  0  0  0  0  0
   -0.7184    5.0574    0.7443 H   0  0  0  0  0  0  0  0  0  0  0  0
   -2.0489    4.3434    1.6960 H   0  0  0  0  0  0  0  0  0  0  0  0
   -2.3853    4.8628   -0.0101 H   0  0  0  0  0  0  0  0  0  0  0  0
   -1.5135   -0.6456   -2.3969 H   0  0  0  0  0  0  0  0  0  0  0  0
  1  2  1  0
  2  3  1  0
  3  4  1  0
  4  5  2  0
  6  5  1  6
  6  7  1  0
  7  8  2  0
  8  9  1  0
  9 10  2  0
 10 11  1  0
 11 12  1  0
 12 13  2  0
 13 14  1  0
 14 15  2  0
 15 16  1  0
 16 17  2  0
 17 18  1  0
 11 19  2  0
  6 20  1  0
 20 21  2  0
 21 22  1  0
 21 23  1  0
 23 24  1  0
 23 25  1  0
 25 26  2  0
  5 27  1  0
 27 28  2  0
 28  3  1  0
 25  6  1  0
 19  7  1  0
 17 12  1  0
  1 29  1  0
  1 30  1  0
  1 31  1  0
  2 32  1  0
  2 33  1  0
  4 34  1  0
  8 35  1  0
  9 36  1  0
 10 37  1  0
 13 38  1  0
 14 39  1  0
 15 40  1  0
 19 41  1  0
 22 42  1  0
 22 43  1  0
 24 44  1  0
 24 45  1  0
 24 46  1  0
 27 47  1  0
M  END
$$$$
