
     RDKit          3D

 44 46  0  0  0  0  0  0  0  0999 V2000
    6.2297    1.5036    0.2903 C   0  0  0  0  0  0  0  0  0  0  0  0
    5.1439    2.2330    0.7779 O   0  0  0  0  0  0  0  0  0  0  0  0
    3.8245    1.8146    0.7342 C   0  0  0  0  0  0  0  0  0  0  0  0
    2.8302    2.6197    1.2473 C   0  0  0  0  0  0  0  0  0  0  0  0
    1.4995    2.2521    1.2295 C   0  0  0  0  0  0  0  0  0  0  0  0
    1.1087    1.0500    0.6911 C   0  0  0  0  0  0  0  0  0  0  0  0
    2.1042    0.2598    0.1853 C   0  0  0  0  0  0  0  0  0  0  0  0
    3.4497    0.6145    0.1949 C   0  0  0  0  0  0  0  0  0  0  0  0
    1.5239   -0.8621   -0.2923 C   0  0  0  0  0  0  0  0  0  0  0  0
    2.1787   -2.0203   -0.9373 C   0  0  0  0  0  0  0  0  0  0  0  0
    2.8593   -2.8803    0.0579 C   0  0  0  0  0  0  0  0  0  0  0  0
    2.8026   -2.5419    1.2660 O   0  0  0  0  0  0  0  0  0  0  0  0
    3.5160   -4.0048   -0.4071 O   0  0  0  0  0  0  0  0  0  0  0  0
    0.1517   -0.7686   -0.0801 C   0  0  0  0  0  0  0  0  0  0  0  0
   -0.8301   -1.8384   -0.3978 C   0  0  0  0  0  0  0  0  0  0  0  0
   -0.0933    0.4007    0.5174 N   0  0  0  0  0  0  0  0  0  0  0  0
   -1.2983    1.0210    0.8638 C   0  0  0  0  0  0  0  0  0  0  0  0
   -1.2264    2.0592    1.6429 O   0  0  0  0  0  0  0  0  0  0  0  0
   -2.6533    0.6702    0.4719 C   0  0  0  0  0  0  0  0  0  0  0  0
   -3.6795    0.7917    1.4164 C   0  0  0  0  0  0  0  0  0  0  0  0
   -5.0046    0.5643    1.1211 C   0  0  0  0  0  0  0  0  0  0  0  0
   -5.3858    0.1965   -0.1540 C   0  0  0  0  0  0  0  0  0  0  0  0
   -6.8033   -0.0604   -0.5164 C   0  0  0  0  0  0  0  0  0  0  0  0
   -7.2025   -1.3355   -0.1753 F   0  0  0  0  0  0  0  0  0  0  0  0
   -6.9118    0.1457   -1.8981 F   0  0  0  0  0  0  0  0  0  0  0  0
   -7.6437    0.8804    0.0621 F   0  0  0  0  0  0  0  0  0  0  0  0
   -4.3924    0.0726   -1.0969 C   0  0  0  0  0  0  0  0  0  0  0  0
   -3.0444    0.3063   -0.7913 C   0  0  0  0  0  0  0  0  0  0  0  0
    6.4671    1.8234   -0.7468 H   0  0  0  0  0  0  0  0  0  0  0  0
    6.0921    0.4079    0.2995 H   0  0  0  0  0  0  0  0  0  0  0  0
    7.1260    1.7187    0.9105 H   0  0  0  0  0  0  0  0  0  0  0  0
    3.1167    3.5567    1.6697 H   0  0  0  0  0  0  0  0  0  0  0  0
    0.8067    2.9519    1.6530 H   0  0  0  0  0  0  0  0  0  0  0  0
    4.1778   -0.0608   -0.2221 H   0  0  0  0  0  0  0  0  0  0  0  0
    1.4372   -2.5999   -1.5392 H   0  0  0  0  0  0  0  0  0  0  0  0
    2.9482   -1.6610   -1.6439 H   0  0  0  0  0  0  0  0  0  0  0  0
    4.0603   -4.5366    0.2427 H   0  0  0  0  0  0  0  0  0  0  0  0
   -1.1978   -1.7988   -1.4283 H   0  0  0  0  0  0  0  0  0  0  0  0
   -0.3041   -2.8329   -0.2710 H   0  0  0  0  0  0  0  0  0  0  0  0
   -1.6808   -1.8788    0.2954 H   0  0  0  0  0  0  0  0  0  0  0  0
   -3.3653    1.0844    2.4266 H   0  0  0  0  0  0  0  0  0  0  0  0
   -5.7819    0.6677    1.8791 H   0  0  0  0  0  0  0  0  0  0  0  0
   -4.6580   -0.2159   -2.1127 H   0  0  0  0  0  0  0  0  0  0  0  0
   -2.2974    0.2304   -1.5801 H   0  0  0  0  0  0  0  0  0  0  0  0
  1  2  1  0
  2  3  1  0
  3  4  2  0
  4  5  1  0
  5  6  2  0
  6  7  1  0
  7  8  2  0
  7  9  1  0
  9 10  1  0
 10 11  1  0
 11 12  2  0
 11 13  1  0
  9 14  2  0
 14 15  1  0
 14 16  1  0
 16 17  1  0
 17 18  2  0
 17 19  1  0
 19 20  2  0
 20 21  1  0
 21 22  2  0
 22 23  1  0
 23 24  1  0
 23 25  1  0
 23 26  1  0
 22 27  1  0
 27 28  2  0
  8  3  1  0
 28 19  1  0
 16  6  1  0
  1 29  1  0
  1 30  1  0
  1 31  1  0
  4 32  1  0
  5 33  1  0
  8 34  1  0
 10 35  1  0
 10 36  1  0
 13 37  1  0
 15 38  1  0
 15 39  1  0
 15 40  1  0
 20 41  1  0
 21 42  1  0
 27 43  1  0
 28 44  1  0
M  END
$$$$
