
     RDKit          3D

 47 50  0  0  0  0  0  0  0  0999 V2000
    5.8692    1.6428   -1.5587 N   0  0  0  0  0  0  0  0  0  0  0  0
    5.4028    1.1552   -0.6224 C   0  0  0  0  0  0  0  0  0  0  0  0
    4.8033    0.5574    0.5395 C   0  0  2  0  0  0  0  0  0  0  0  0
    5.7138   -0.5426    1.1297 C   0  0  0  0  0  0  0  0  0  0  0  0
    5.0348   -1.8076    0.6114 C   0  0  0  0  0  0  0  0  0  0  0  0
    3.5641   -1.4415    0.8855 C   0  0  0  0  0  0  0  0  0  0  0  0
    3.5552   -0.0839    0.2976 N   0  0  0  0  0  0  0  0  0  0  0  0
    2.3769    0.4443   -0.2956 C   0  0  0  0  0  0  0  0  0  0  0  0
    2.4419    1.5257   -0.9354 O   0  0  0  0  0  0  0  0  0  0  0  0
    1.0594   -0.2751   -0.1445 C   0  0  0  0  0  0  0  0  0  0  0  0
    0.0715    0.4586   -0.8428 N   0  0  0  0  0  0  0  0  0  0  0  0
   -1.2962    0.2137   -0.5259 C   0  0  0  0  0  0  0  0  0  0  0  0
   -2.1336    0.9638   -1.5696 C   0  0  0  0  0  0  0  0  0  0  0  0
   -3.5952    0.9384   -1.2649 C   0  0  0  0  0  0  0  0  0  0  0  0
   -3.8493    1.5855    0.0542 C   0  0  0  0  0  0  0  0  0  0  0  0
   -3.0750    0.8216    1.1069 C   0  0  0  0  0  0  0  0  0  0  0  0
   -3.5099   -0.6248    1.1770 C   0  0  0  0  0  0  0  0  0  0  0  0
   -3.2297   -1.2365   -0.1706 C   0  0  0  0  0  0  0  0  0  0  0  0
   -3.6721   -2.5666   -0.1435 O   0  0  0  0  0  0  0  0  0  0  0  0
   -4.0734   -0.4968   -1.1755 C   0  0  0  0  0  0  0  0  0  0  0  0
   -1.7520   -1.2034   -0.5130 C   0  0  0  0  0  0  0  0  0  0  0  0
   -1.6032    0.8198    0.8475 C   0  0  0  0  0  0  0  0  0  0  0  0
    4.7070    1.3554    1.3452 H   0  0  0  0  0  0  0  0  0  0  0  0
    6.7203   -0.4133    0.7138 H   0  0  0  0  0  0  0  0  0  0  0  0
    5.6908   -0.5339    2.2318 H   0  0  0  0  0  0  0  0  0  0  0  0
    5.1944   -1.9236   -0.4655 H   0  0  0  0  0  0  0  0  0  0  0  0
    5.3225   -2.6810    1.1810 H   0  0  0  0  0  0  0  0  0  0  0  0
    2.8900   -2.1008    0.3349 H   0  0  0  0  0  0  0  0  0  0  0  0
    3.4159   -1.3868    1.9692 H   0  0  0  0  0  0  0  0  0  0  0  0
    0.9181   -0.4597    0.9078 H   0  0  0  0  0  0  0  0  0  0  0  0
    1.2307   -1.2801   -0.6427 H   0  0  0  0  0  0  0  0  0  0  0  0
    0.2677    0.4263   -1.8724 H   0  0  0  0  0  0  0  0  0  0  0  0
   -1.7041    1.9507   -1.7334 H   0  0  0  0  0  0  0  0  0  0  0  0
   -1.9715    0.3572   -2.5143 H   0  0  0  0  0  0  0  0  0  0  0  0
   -4.1084    1.4911   -2.0505 H   0  0  0  0  0  0  0  0  0  0  0  0
   -4.9209    1.4971    0.3031 H   0  0  0  0  0  0  0  0  0  0  0  0
   -3.5399    2.6352    0.1147 H   0  0  0  0  0  0  0  0  0  0  0  0
   -3.2361    1.3146    2.1109 H   0  0  0  0  0  0  0  0  0  0  0  0
   -4.5912   -0.6880    1.3924 H   0  0  0  0  0  0  0  0  0  0  0  0
   -2.9330   -1.1658    1.9267 H   0  0  0  0  0  0  0  0  0  0  0  0
   -2.9139   -3.1551   -0.3743 H   0  0  0  0  0  0  0  0  0  0  0  0
   -4.1204   -0.9661   -2.1693 H   0  0  0  0  0  0  0  0  0  0  0  0
   -5.1125   -0.4297   -0.7332 H   0  0  0  0  0  0  0  0  0  0  0  0
   -1.6811   -1.6482   -1.5369 H   0  0  0  0  0  0  0  0  0  0  0  0
   -1.2483   -1.8421    0.2111 H   0  0  0  0  0  0  0  0  0  0  0  0
   -1.1437    0.1629    1.6126 H   0  0  0  0  0  0  0  0  0  0  0  0
   -1.2359    1.8667    0.8501 H   0  0  0  0  0  0  0  0  0  0  0  0
  1  2  3  0
  2  3  1  0
  3  4  1  0
  4  5  1  0
  5  6  1  0
  6  7  1  0
  7  8  1  0
  8  9  2  0
  8 10  1  0
 10 11  1  0
 11 12  1  0
 12 13  1  0
 13 14  1  0
 14 15  1  0
 15 16  1  0
 16 17  1  0
 17 18  1  0
 18 19  1  0
 18 20  1  0
 18 21  1  0
 16 22  1  0
  7  3  1  0
 21 12  1  0
 22 12  1  0
 20 14  1  0
  3 23  1  1
  4 24  1  0
  4 25  1  0
  5 26  1  0
  5 27  1  0
  6 28  1  0
  6 29  1  0
 10 30  1  0
 10 31  1  0
 11 32  1  0
 13 33  1  0
 13 34  1  0
 14 35  1  0
 15 36  1  0
 15 37  1  0
 16 38  1  0
 17 39  1  0
 17 40  1  0
 19 41  1  0
 20 42  1  0
 20 43  1  0
 21 44  1  0
 21 45  1  0
 22 46  1  0
 22 47  1  0
M  END
$$$$
