
     RDKit          3D

 63 68  0  0  0  0  0  0  0  0999 V2000
   -5.1542   -0.8534    1.5646 C   0  0  0  0  0  0  0  0  0  0  0  0
   -5.3063   -1.9150    0.5371 C   0  0  0  0  0  0  0  0  0  0  0  0
   -6.4637   -2.4024    0.1747 O   0  0  0  0  0  0  0  0  0  0  0  0
   -6.3138   -3.3312   -0.7507 C   0  0  0  0  0  0  0  0  0  0  0  0
   -4.9489   -3.4585   -1.0119 C   0  0  0  0  0  0  0  0  0  0  0  0
   -4.3247   -2.5520   -0.1856 C   0  0  0  0  0  0  0  0  0  0  0  0
   -2.8968   -2.3263   -0.1129 C   0  0  0  0  0  0  0  0  0  0  0  0
   -2.0784   -3.2934    0.4059 N   0  0  0  0  0  0  0  0  0  0  0  0
   -0.7526   -3.0927    0.4848 C   0  0  0  0  0  0  0  0  0  0  0  0
    0.1334   -4.0783    1.0193 N   0  0  0  0  0  0  0  0  0  0  0  0
   -0.1809   -1.9191    0.0505 C   0  0  0  0  0  0  0  0  0  0  0  0
    1.1892   -1.7157    0.1347 O   0  0  0  0  0  0  0  0  0  0  0  0
    1.7223   -0.5062   -0.3209 C   0  0  0  0  0  0  0  0  0  0  0  0
    3.2435   -0.5000   -0.1251 C   0  0  1  0  0  0  0  0  0  0  0  0
    3.7696   -1.5976   -0.8771 N   0  0  0  0  0  0  0  0  0  0  0  0
    3.7069    0.8426   -0.6476 C   0  0  0  0  0  0  0  0  0  0  0  0
    5.1555    1.0415   -0.5424 C   0  0  0  0  0  0  0  0  0  0  0  0
    6.0954    0.9682   -1.5473 C   0  0  0  0  0  0  0  0  0  0  0  0
    7.2791    1.2194   -0.9801 N   0  0  0  0  0  0  0  0  0  0  0  0
    7.1662    1.4557    0.3537 C   0  0  0  0  0  0  0  0  0  0  0  0
    8.0768    1.7532    1.3412 C   0  0  0  0  0  0  0  0  0  0  0  0
    7.6697    1.9467    2.6313 C   0  0  0  0  0  0  0  0  0  0  0  0
    6.3298    1.8391    2.9316 C   0  0  0  0  0  0  0  0  0  0  0  0
    5.4294    1.5424    1.9423 C   0  0  0  0  0  0  0  0  0  0  0  0
    5.8207    1.3430    0.6303 C   0  0  0  0  0  0  0  0  0  0  0  0
   -1.0110   -0.9478   -0.4717 C   0  0  0  0  0  0  0  0  0  0  0  0
   -2.3844   -1.1340   -0.5630 C   0  0  0  0  0  0  0  0  0  0  0  0
   -3.2674   -0.1221   -1.1186 C   0  0  0  0  0  0  0  0  0  0  0  0
   -4.0099   -0.3910   -2.2660 C   0  0  0  0  0  0  0  0  0  0  0  0
   -4.8258    0.5296   -2.8019 N   0  0  0  0  0  0  0  0  0  0  0  0
   -4.9672    1.7573   -2.2577 C   0  0  0  0  0  0  0  0  0  0  0  0
   -5.6926    2.8435   -2.5758 N   0  0  0  0  0  0  0  0  0  0  0  0
   -5.4382    3.7912   -1.6739 N   0  0  0  0  0  0  0  0  0  0  0  0
   -4.5558    3.3298   -0.7751 C   0  0  0  0  0  0  0  0  0  0  0  0
   -3.9895    4.0376    0.3983 C   0  0  0  0  0  0  0  0  0  0  0  0
   -4.2371    2.0352   -1.1217 C   0  0  0  0  0  0  0  0  0  0  0  0
   -3.4100    1.1015   -0.5792 N   0  0  0  0  0  0  0  0  0  0  0  0
   -5.3511    0.1564    1.1817 H   0  0  0  0  0  0  0  0  0  0  0  0
   -5.8962   -1.0244    2.4010 H   0  0  0  0  0  0  0  0  0  0  0  0
   -4.1562   -0.9494    2.0744 H   0  0  0  0  0  0  0  0  0  0  0  0
   -7.1231   -3.8931   -1.2206 H   0  0  0  0  0  0  0  0  0  0  0  0
   -4.4766   -4.1353   -1.7218 H   0  0  0  0  0  0  0  0  0  0  0  0
    0.2171   -4.9918    0.5490 H   0  0  0  0  0  0  0  0  0  0  0  0
    0.6659   -3.8021    1.8943 H   0  0  0  0  0  0  0  0  0  0  0  0
    1.3405    0.2896    0.3795 H   0  0  0  0  0  0  0  0  0  0  0  0
    1.4387   -0.2505   -1.3591 H   0  0  0  0  0  0  0  0  0  0  0  0
    3.4481   -0.6417    0.9323 H   0  0  0  0  0  0  0  0  0  0  0  0
    3.0932   -1.9217   -1.5921 H   0  0  0  0  0  0  0  0  0  0  0  0
    4.0140   -2.3981   -0.2533 H   0  0  0  0  0  0  0  0  0  0  0  0
    3.1951    1.6220   -0.0282 H   0  0  0  0  0  0  0  0  0  0  0  0
    3.3520    1.0125   -1.6832 H   0  0  0  0  0  0  0  0  0  0  0  0
    5.9330    0.7496   -2.6090 H   0  0  0  0  0  0  0  0  0  0  0  0
    8.2067    1.2451   -1.4482 H   0  0  0  0  0  0  0  0  0  0  0  0
    9.1167    1.8362    1.1000 H   0  0  0  0  0  0  0  0  0  0  0  0
    8.4013    2.1871    3.4327 H   0  0  0  0  0  0  0  0  0  0  0  0
    6.0147    1.9905    3.9453 H   0  0  0  0  0  0  0  0  0  0  0  0
    4.3546    1.4505    2.1497 H   0  0  0  0  0  0  0  0  0  0  0  0
   -0.5653   -0.0206   -0.8147 H   0  0  0  0  0  0  0  0  0  0  0  0
   -3.8998   -1.3728   -2.7077 H   0  0  0  0  0  0  0  0  0  0  0  0
   -6.3544    2.9404   -3.3969 H   0  0  0  0  0  0  0  0  0  0  0  0
   -4.7833    4.5755    0.9584 H   0  0  0  0  0  0  0  0  0  0  0  0
   -3.2444    4.7796    0.0516 H   0  0  0  0  0  0  0  0  0  0  0  0
   -3.5197    3.3259    1.1102 H   0  0  0  0  0  0  0  0  0  0  0  0
  1  2  1  0
  2  3  1  0
  3  4  1  0
  4  5  2  0
  5  6  1  0
  6  7  1  0
  7  8  2  0
  8  9  1  0
  9 10  1  0
  9 11  2  0
 11 12  1  0
 12 13  1  0
 13 14  1  0
 14 15  1  0
 14 16  1  0
 16 17  1  0
 17 18  2  0
 18 19  1  0
 19 20  1  0
 20 21  2  0
 21 22  1  0
 22 23  2  0
 23 24  1  0
 24 25  2  0
 11 26  1  0
 26 27  2  0
 27 28  1  0
 28 29  2  0
 29 30  1  0
 30 31  2  0
 31 32  1  0
 32 33  1  0
 33 34  2  0
 34 35  1  0
 34 36  1  0
 36 37  2  0
  6  2  2  0
 27  7  1  0
 37 28  1  0
 25 17  1  0
 36 31  1  0
 25 20  1  0
  1 38  1  0
  1 39  1  0
  1 40  1  0
  4 41  1  0
  5 42  1  0
 10 43  1  0
 10 44  1  0
 13 45  1  0
 13 46  1  0
 14 47  1  1
 15 48  1  0
 15 49  1  0
 16 50  1  0
 16 51  1  0
 18 52  1  0
 19 53  1  0
 21 54  1  0
 22 55  1  0
 23 56  1  0
 24 57  1  0
 26 58  1  0
 29 59  1  0
 32 60  1  0
 35 61  1  0
 35 62  1  0
 35 63  1  0
M  END
$$$$
