
     RDKit          3D

 35 35  0  0  0  0  0  0  0  0999 V2000
    4.8542   -0.4379   -1.3033 C   0  0  0  0  0  0  0  0  0  0  0  0
    3.4331    0.0216   -1.0686 C   0  0  0  0  0  0  0  0  0  0  0  0
    2.8577   -0.7815    0.0777 C   0  0  0  0  0  0  0  0  0  0  0  0
    1.4320   -0.3845    0.3809 C   0  0  0  0  0  0  0  0  0  0  0  0
    0.9865   -1.2713    1.5502 C   0  0  0  0  0  0  0  0  0  0  0  0
    1.3129    0.9708    0.8231 N   0  0  0  0  0  0  0  0  0  0  0  0
    0.1536    1.7827   -0.1217 S   0  0  0  0  0  6  0  0  0  0  0  0
    0.5837    1.7567   -1.5661 O   0  0  0  0  0  0  0  0  0  0  0  0
    0.0324    3.2450    0.2851 O   0  0  0  0  0  0  0  0  0  0  0  0
   -1.4446    1.1060   -0.0127 C   0  0  0  0  0  0  0  0  0  0  0  0
   -2.3701    1.4481    0.9475 C   0  0  0  0  0  0  0  0  0  0  0  0
   -3.6392    0.8713    0.9772 C   0  0  0  0  0  0  0  0  0  0  0  0
   -3.9784   -0.0640    0.0242 C   0  0  0  0  0  0  0  0  0  0  0  0
   -5.3426   -0.7015    0.0348 C   0  0  0  0  0  0  0  0  0  0  0  0
   -3.0759   -0.4170   -0.9361 C   0  0  0  0  0  0  0  0  0  0  0  0
   -1.8180    0.1673   -0.9502 C   0  0  0  0  0  0  0  0  0  0  0  0
    5.2903   -0.9101   -0.3920 H   0  0  0  0  0  0  0  0  0  0  0  0
    5.5229    0.4004   -1.5815 H   0  0  0  0  0  0  0  0  0  0  0  0
    4.8531   -1.1950   -2.1382 H   0  0  0  0  0  0  0  0  0  0  0  0
    2.8036   -0.0148   -1.9653 H   0  0  0  0  0  0  0  0  0  0  0  0
    3.4805    1.0872   -0.7196 H   0  0  0  0  0  0  0  0  0  0  0  0
    3.4395   -0.6539    0.9950 H   0  0  0  0  0  0  0  0  0  0  0  0
    2.8467   -1.8598   -0.1809 H   0  0  0  0  0  0  0  0  0  0  0  0
    0.7817   -0.6602   -0.4620 H   0  0  0  0  0  0  0  0  0  0  0  0
    1.5757   -0.9298    2.4297 H   0  0  0  0  0  0  0  0  0  0  0  0
   -0.0814   -1.1657    1.7633 H   0  0  0  0  0  0  0  0  0  0  0  0
    1.3093   -2.3215    1.3645 H   0  0  0  0  0  0  0  0  0  0  0  0
    2.1929    1.4986    0.8965 H   0  0  0  0  0  0  0  0  0  0  0  0
   -2.0900    2.1867    1.6929 H   0  0  0  0  0  0  0  0  0  0  0  0
   -4.3716    1.1358    1.7293 H   0  0  0  0  0  0  0  0  0  0  0  0
   -6.1073    0.0216    0.3619 H   0  0  0  0  0  0  0  0  0  0  0  0
   -5.5754   -1.0184   -1.0095 H   0  0  0  0  0  0  0  0  0  0  0  0
   -5.3576   -1.5942    0.6806 H   0  0  0  0  0  0  0  0  0  0  0  0
   -3.3313   -1.1548   -1.6949 H   0  0  0  0  0  0  0  0  0  0  0  0
   -1.1591   -0.1640   -1.7471 H   0  0  0  0  0  0  0  0  0  0  0  0
  1  2  1  0
  2  3  1  0
  3  4  1  0
  4  5  1  0
  4  6  1  0
  6  7  1  0
  7  8  2  0
  7  9  2  0
  7 10  1  0
 10 11  2  0
 11 12  1  0
 12 13  2  0
 13 14  1  0
 13 15  1  0
 15 16  2  0
 16 10  1  0
  1 17  1  0
  1 18  1  0
  1 19  1  0
  2 20  1  0
  2 21  1  0
  3 22  1  0
  3 23  1  0
  4 24  1  0
  5 25  1  0
  5 26  1  0
  5 27  1  0
  6 28  1  0
 11 29  1  0
 12 30  1  0
 14 31  1  0
 14 32  1  0
 14 33  1  0
 15 34  1  0
 16 35  1  0
M  END
$$$$
