
     RDKit          3D

 41 41  0  0  0  0  0  0  0  0999 V2000
   -3.6756   -1.0315    0.0029 C   0  0  2  0  0  0  0  0  0  0  0  0
   -3.6589   -1.3475    1.3708 O   0  0  0  0  0  0  0  0  0  0  0  0
   -2.5161   -1.7977   -0.6203 C   0  0  0  0  0  0  0  0  0  0  0  0
   -1.1826   -1.2457   -0.3029 C   0  0  1  0  0  0  0  0  0  0  0  0
   -0.4621   -1.1869   -1.4976 O   0  0  0  0  0  0  0  0  0  0  0  0
   -1.1006    0.0536    0.4093 C   0  0  2  0  0  0  0  0  0  0  0  0
   -0.3534   -0.0702    1.5685 O   0  0  0  0  0  0  0  0  0  0  0  0
    0.7633    0.7109    1.6488 C   0  0  0  0  0  0  0  0  0  0  0  0
    1.7883    0.3938    0.5315 C   0  0  0  0  0  0  0  0  0  0  0  0
    2.9380    1.3157    0.7568 C   0  0  0  0  0  0  0  0  0  0  0  0
    4.0574    1.2709   -0.1958 C   0  0  0  0  0  0  0  0  0  0  0  0
    4.7859   -0.0246   -0.3225 C   0  0  0  0  0  0  0  0  0  0  0  0
    3.9509   -1.1449   -0.8509 C   0  0  0  0  0  0  0  0  0  0  0  0
   -2.3112    0.6069    0.7879 O   0  0  0  0  0  0  0  0  0  0  0  0
   -3.2373    0.4236   -0.2050 C   0  0  2  0  0  0  0  0  0  0  0  0
   -4.4112    1.3601   -0.1600 C   0  0  0  0  0  0  0  0  0  0  0  0
   -5.1445    1.2785    0.9998 O   0  0  0  0  0  0  0  0  0  0  0  0
   -4.6174   -1.2493   -0.4850 H   0  0  0  0  0  0  0  0  0  0  0  0
   -3.2822   -2.2559    1.4837 H   0  0  0  0  0  0  0  0  0  0  0  0
   -2.7395   -1.7836   -1.7205 H   0  0  0  0  0  0  0  0  0  0  0  0
   -2.6499   -2.8701   -0.3231 H   0  0  0  0  0  0  0  0  0  0  0  0
   -0.6461   -2.0385    0.2926 H   0  0  0  0  0  0  0  0  0  0  0  0
   -0.9152   -0.6473   -2.1946 H   0  0  0  0  0  0  0  0  0  0  0  0
   -0.6239    0.8095   -0.2418 H   0  0  0  0  0  0  0  0  0  0  0  0
    1.2896    0.5819    2.6083 H   0  0  0  0  0  0  0  0  0  0  0  0
    0.4534    1.7656    1.4574 H   0  0  0  0  0  0  0  0  0  0  0  0
    1.3505    0.5967   -0.4432 H   0  0  0  0  0  0  0  0  0  0  0  0
    2.0170   -0.6819    0.6952 H   0  0  0  0  0  0  0  0  0  0  0  0
    2.5362    2.3721    0.7359 H   0  0  0  0  0  0  0  0  0  0  0  0
    3.3420    1.1473    1.8081 H   0  0  0  0  0  0  0  0  0  0  0  0
    3.6682    1.5900   -1.2115 H   0  0  0  0  0  0  0  0  0  0  0  0
    4.7694    2.1016    0.0975 H   0  0  0  0  0  0  0  0  0  0  0  0
    5.6668    0.1247   -1.0116 H   0  0  0  0  0  0  0  0  0  0  0  0
    5.2713   -0.2925    0.6594 H   0  0  0  0  0  0  0  0  0  0  0  0
    3.7824   -1.9282   -0.0847 H   0  0  0  0  0  0  0  0  0  0  0  0
    3.0435   -0.7986   -1.3697 H   0  0  0  0  0  0  0  0  0  0  0  0
    4.5360   -1.7038   -1.6691 H   0  0  0  0  0  0  0  0  0  0  0  0
   -2.7356    0.5638   -1.1854 H   0  0  0  0  0  0  0  0  0  0  0  0
   -5.0877    1.0235   -0.9994 H   0  0  0  0  0  0  0  0  0  0  0  0
   -4.0590    2.3587   -0.4276 H   0  0  0  0  0  0  0  0  0  0  0  0
   -4.6003    1.6492    1.7385 H   0  0  0  0  0  0  0  0  0  0  0  0
  1  2  1  0
  1  3  1  0
  3  4  1  0
  4  5  1  0
  4  6  1  0
  6  7  1  0
  7  8  1  0
  8  9  1  0
  9 10  1  0
 10 11  1  0
 11 12  1  0
 12 13  1  0
  6 14  1  0
 14 15  1  0
 15 16  1  0
 16 17  1  0
 15  1  1  0
  1 18  1  6
  2 19  1  0
  3 20  1  0
  3 21  1  0
  4 22  1  1
  5 23  1  0
  6 24  1  6
  8 25  1  0
  8 26  1  0
  9 27  1  0
  9 28  1  0
 10 29  1  0
 10 30  1  0
 11 31  1  0
 11 32  1  0
 12 33  1  0
 12 34  1  0
 13 35  1  0
 13 36  1  0
 13 37  1  0
 15 38  1  6
 16 39  1  0
 16 40  1  0
 17 41  1  0
M  END
$$$$
