
     RDKit          3D

 57 61  0  0  0  0  0  0  0  0999 V2000
    0.9328    0.2867   -3.8136 C   0  0  0  0  0  0  0  0  0  0  0  0
    0.1032   -0.1960   -2.7771 O   0  0  0  0  0  0  0  0  0  0  0  0
    0.6420   -0.4152   -1.5215 C   0  0  0  0  0  0  0  0  0  0  0  0
    1.9933   -0.1540   -1.3084 C   0  0  0  0  0  0  0  0  0  0  0  0
    2.5632   -0.3586   -0.0786 C   0  0  0  0  0  0  0  0  0  0  0  0
    3.8975   -0.1146    0.1826 C   0  0  0  0  0  0  0  0  0  0  0  0
    4.7396    0.3707   -0.8521 N   0  0  0  0  0  0  0  0  0  0  0  0
    6.1243    0.5996   -0.4946 C   0  0  0  0  0  0  0  0  0  0  0  0
    7.1487   -0.0580   -1.1227 C   0  0  0  0  0  0  0  0  0  0  0  0
    8.4768    0.1560   -0.7857 C   0  0  0  0  0  0  0  0  0  0  0  0
    9.7574   -0.7067   -1.6148 Cl  0  0  0  0  0  0  0  0  0  0  0  0
    8.7945    1.0467    0.2011 C   0  0  0  0  0  0  0  0  0  0  0  0
   10.4836    1.3280    0.6396 Cl  0  0  0  0  0  0  0  0  0  0  0  0
    7.7764    1.7155    0.8418 C   0  0  0  0  0  0  0  0  0  0  0  0
    6.4509    1.5022    0.5057 C   0  0  0  0  0  0  0  0  0  0  0  0
    5.4312    2.1556    1.1296 F   0  0  0  0  0  0  0  0  0  0  0  0
    4.3953   -0.3414    1.4306 N   0  0  0  0  0  0  0  0  0  0  0  0
    3.6114   -0.7961    2.4040 C   0  0  0  0  0  0  0  0  0  0  0  0
    2.3185   -1.0329    2.1524 N   0  0  0  0  0  0  0  0  0  0  0  0
    1.7602   -0.8324    0.9477 C   0  0  0  0  0  0  0  0  0  0  0  0
    0.4212   -1.0826    0.7047 C   0  0  0  0  0  0  0  0  0  0  0  0
   -0.1796   -0.8906   -0.5046 C   0  0  0  0  0  0  0  0  0  0  0  0
   -1.4622   -1.1256   -0.7476 O   0  0  0  0  0  0  0  0  0  0  0  0
   -2.5717   -1.5521   -0.1001 C   0  0  0  0  0  0  0  0  0  0  0  0
   -3.0768   -0.7243    1.0600 C   0  0  2  0  0  0  0  0  0  0  0  0
   -4.3414   -1.4246    1.5482 C   0  0  0  0  0  0  0  0  0  0  0  0
   -5.5307   -0.6642    1.2943 N   0  0  0  0  0  0  0  0  0  0  0  0
   -5.9044   -0.6219   -0.0928 C   0  0  0  0  0  0  0  0  0  0  0  0
   -7.2234    0.1309   -0.2168 C   0  0  0  0  0  0  0  0  0  0  0  0
   -7.6140    0.6907    0.9866 O   0  0  0  0  0  0  0  0  0  0  0  0
   -6.6202    1.4427    1.5967 C   0  0  0  0  0  0  0  0  0  0  0  0
   -5.3731    0.6325    1.8835 C   0  0  0  0  0  0  0  0  0  0  0  0
   -4.1390    1.3080    1.3942 C   0  0  0  0  0  0  0  0  0  0  0  0
   -3.3611    0.5366    0.5567 O   0  0  0  0  0  0  0  0  0  0  0  0
    0.3565    0.5516   -4.7191 H   0  0  0  0  0  0  0  0  0  0  0  0
    1.6748   -0.5126   -4.0640 H   0  0  0  0  0  0  0  0  0  0  0  0
    1.5050    1.1820   -3.5254 H   0  0  0  0  0  0  0  0  0  0  0  0
    2.6154    0.2157   -2.1138 H   0  0  0  0  0  0  0  0  0  0  0  0
    4.4983    0.5802   -1.8161 H   0  0  0  0  0  0  0  0  0  0  0  0
    6.9057   -0.7692   -1.9098 H   0  0  0  0  0  0  0  0  0  0  0  0
    8.0200    2.4103    1.6113 H   0  0  0  0  0  0  0  0  0  0  0  0
    4.0142   -0.9784    3.4099 H   0  0  0  0  0  0  0  0  0  0  0  0
   -0.1325   -1.4574    1.5509 H   0  0  0  0  0  0  0  0  0  0  0  0
   -3.4109   -1.7153   -0.8497 H   0  0  0  0  0  0  0  0  0  0  0  0
   -2.3724   -2.6207    0.2381 H   0  0  0  0  0  0  0  0  0  0  0  0
   -2.3098   -0.7065    1.8483 H   0  0  0  0  0  0  0  0  0  0  0  0
   -4.4144   -2.4638    1.1739 H   0  0  0  0  0  0  0  0  0  0  0  0
   -4.2497   -1.5117    2.6664 H   0  0  0  0  0  0  0  0  0  0  0  0
   -5.9865   -1.6673   -0.4543 H   0  0  0  0  0  0  0  0  0  0  0  0
   -5.1907   -0.1095   -0.7453 H   0  0  0  0  0  0  0  0  0  0  0  0
   -7.9930   -0.6387   -0.4736 H   0  0  0  0  0  0  0  0  0  0  0  0
   -7.2128    0.8506   -1.0593 H   0  0  0  0  0  0  0  0  0  0  0  0
   -7.0375    1.8040    2.5589 H   0  0  0  0  0  0  0  0  0  0  0  0
   -6.3850    2.3325    0.9781 H   0  0  0  0  0  0  0  0  0  0  0  0
   -5.2711    0.4723    2.9910 H   0  0  0  0  0  0  0  0  0  0  0  0
   -3.5755    1.7470    2.2362 H   0  0  0  0  0  0  0  0  0  0  0  0
   -4.4724    2.1946    0.7767 H   0  0  0  0  0  0  0  0  0  0  0  0
  1  2  1  0
  2  3  1  0
  3  4  2  0
  4  5  1  0
  5  6  2  0
  6  7  1  0
  7  8  1  0
  8  9  2  0
  9 10  1  0
 10 11  1  0
 10 12  2  0
 12 13  1  0
 12 14  1  0
 14 15  2  0
 15 16  1  0
  6 17  1  0
 17 18  2  0
 18 19  1  0
 19 20  2  0
 20 21  1  0
 21 22  2  0
 22 23  1  0
 23 24  1  0
 24 25  1  0
 25 26  1  0
 26 27  1  0
 27 28  1  0
 28 29  1  0
 29 30  1  0
 30 31  1  0
 31 32  1  0
 32 33  1  0
 33 34  1  0
 22  3  1  0
 34 25  1  0
 20  5  1  0
 32 27  1  0
 15  8  1  0
  1 35  1  0
  1 36  1  0
  1 37  1  0
  4 38  1  0
  7 39  1  0
  9 40  1  0
 14 41  1  0
 18 42  1  0
 21 43  1  0
 24 44  1  0
 24 45  1  0
 25 46  1  1
 26 47  1  0
 26 48  1  0
 28 49  1  0
 28 50  1  0
 29 51  1  0
 29 52  1  0
 31 53  1  0
 31 54  1  0
 32 55  1  0
 33 56  1  0
 33 57  1  0
M  END
$$$$
