
     RDKit          3D

 65 64  0  0  0  0  0  0  0  0999 V2000
    8.8835   -1.2964    2.5029 C   0  0  0  0  0  0  0  0  0  0  0  0
    7.5421   -0.7088    2.1212 C   0  0  0  0  0  0  0  0  0  0  0  0
    6.9582   -1.3386    1.0562 O   0  0  0  0  0  0  0  0  0  0  0  0
    7.6410   -1.3324   -0.1038 C   0  0  0  0  0  0  0  0  0  0  0  0
    7.9945   -0.0494   -0.7586 C   0  0  0  0  0  0  0  0  0  0  0  0
    7.1729    0.8341   -1.1795 O   0  0  0  0  0  0  0  0  0  0  0  0
    6.2494    1.6465   -0.7894 C   0  0  0  0  0  0  0  0  0  0  0  0
    5.0168    1.0144   -0.1772 C   0  0  0  0  0  0  0  0  0  0  0  0
    4.4730    0.1817   -1.1094 O   0  0  0  0  0  0  0  0  0  0  0  0
    3.3445   -0.5190   -0.7489 C   0  0  0  0  0  0  0  0  0  0  0  0
    2.2420    0.4140   -0.3906 C   0  0  0  0  0  0  0  0  0  0  0  0
    1.0521   -0.2096   -0.0155 O   0  0  0  0  0  0  0  0  0  0  0  0
    0.5015   -1.0138   -0.9816 C   0  0  0  0  0  0  0  0  0  0  0  0
    0.1617   -0.3046   -2.2485 C   0  0  0  0  0  0  0  0  0  0  0  0
   -0.7407    0.7208   -2.1420 O   0  0  0  0  0  0  0  0  0  0  0  0
   -1.9973    0.3041   -1.6380 C   0  0  0  0  0  0  0  0  0  0  0  0
   -2.8356    1.5607   -1.6015 C   0  0  0  0  0  0  0  0  0  0  0  0
   -4.0756    1.5465   -1.2015 O   0  0  0  0  0  0  0  0  0  0  0  0
   -4.6716    1.2443   -0.0828 C   0  0  0  0  0  0  0  0  0  0  0  0
   -4.5551   -0.1782    0.3920 C   0  0  0  0  0  0  0  0  0  0  0  0
   -5.0603   -1.0781   -0.5188 O   0  0  0  0  0  0  0  0  0  0  0  0
   -6.3864   -0.9280   -0.8341 C   0  0  0  0  0  0  0  0  0  0  0  0
   -7.3312   -1.0576    0.3337 C   0  0  0  0  0  0  0  0  0  0  0  0
   -8.6160   -0.8867   -0.1242 O   0  0  0  0  0  0  0  0  0  0  0  0
   -9.5542   -0.9943    0.9025 C   0  0  0  0  0  0  0  0  0  0  0  0
   -9.3799    0.0089    1.9993 C   0  0  0  0  0  0  0  0  0  0  0  0
  -10.3925   -0.2190    2.9602 O   0  0  0  0  0  0  0  0  0  0  0  0
    8.9719   -1.5176    3.5892 H   0  0  0  0  0  0  0  0  0  0  0  0
    9.7214   -0.6011    2.2648 H   0  0  0  0  0  0  0  0  0  0  0  0
    9.0550   -2.2890    2.0023 H   0  0  0  0  0  0  0  0  0  0  0  0
    7.6112    0.4056    1.9908 H   0  0  0  0  0  0  0  0  0  0  0  0
    6.8743   -0.8510    3.0034 H   0  0  0  0  0  0  0  0  0  0  0  0
    8.5371   -2.0314   -0.0366 H   0  0  0  0  0  0  0  0  0  0  0  0
    6.9956   -1.8902   -0.8589 H   0  0  0  0  0  0  0  0  0  0  0  0
    8.6491   -0.3880   -1.6668 H   0  0  0  0  0  0  0  0  0  0  0  0
    8.8316    0.4742   -0.1588 H   0  0  0  0  0  0  0  0  0  0  0  0
    5.8094    2.2397   -1.6788 H   0  0  0  0  0  0  0  0  0  0  0  0
    6.6148    2.4765   -0.0710 H   0  0  0  0  0  0  0  0  0  0  0  0
    5.2640    0.5174    0.7496 H   0  0  0  0  0  0  0  0  0  0  0  0
    4.2904    1.8498    0.1022 H   0  0  0  0  0  0  0  0  0  0  0  0
    3.5344   -1.2258    0.0889 H   0  0  0  0  0  0  0  0  0  0  0  0
    3.0894   -1.1610   -1.6332 H   0  0  0  0  0  0  0  0  0  0  0  0
    2.5755    0.9492    0.5494 H   0  0  0  0  0  0  0  0  0  0  0  0
    2.1379    1.1798   -1.1567 H   0  0  0  0  0  0  0  0  0  0  0  0
    1.2143   -1.8194   -1.2333 H   0  0  0  0  0  0  0  0  0  0  0  0
   -0.3889   -1.5424   -0.5578 H   0  0  0  0  0  0  0  0  0  0  0  0
   -0.2051   -1.0614   -2.9810 H   0  0  0  0  0  0  0  0  0  0  0  0
    1.0859    0.1112   -2.6796 H   0  0  0  0  0  0  0  0  0  0  0  0
   -1.7959   -0.0767   -0.6282 H   0  0  0  0  0  0  0  0  0  0  0  0
   -2.3933   -0.4848   -2.2717 H   0  0  0  0  0  0  0  0  0  0  0  0
   -2.2014    2.3469   -1.0422 H   0  0  0  0  0  0  0  0  0  0  0  0
   -2.8143    2.0397   -2.6532 H   0  0  0  0  0  0  0  0  0  0  0  0
   -4.3146    1.9417    0.7671 H   0  0  0  0  0  0  0  0  0  0  0  0
   -5.7861    1.5448   -0.0934 H   0  0  0  0  0  0  0  0  0  0  0  0
   -5.1192   -0.2851    1.3892 H   0  0  0  0  0  0  0  0  0  0  0  0
   -3.5377   -0.4426    0.6643 H   0  0  0  0  0  0  0  0  0  0  0  0
   -6.6227    0.0082   -1.3720 H   0  0  0  0  0  0  0  0  0  0  0  0
   -6.6490   -1.7483   -1.5332 H   0  0  0  0  0  0  0  0  0  0  0  0
   -7.2235   -2.0361    0.8061 H   0  0  0  0  0  0  0  0  0  0  0  0
   -7.1185   -0.2019    1.0106 H   0  0  0  0  0  0  0  0  0  0  0  0
   -9.3932   -2.0030    1.3694 H   0  0  0  0  0  0  0  0  0  0  0  0
  -10.5841   -0.9736    0.5338 H   0  0  0  0  0  0  0  0  0  0  0  0
   -9.5349    1.0542    1.6665 H   0  0  0  0  0  0  0  0  0  0  0  0
   -8.4309   -0.1375    2.5671 H   0  0  0  0  0  0  0  0  0  0  0  0
  -10.3870    0.5609    3.5696 H   0  0  0  0  0  0  0  0  0  0  0  0
  1  2  1  0
  2  3  1  0
  3  4  1  0
  4  5  1  0
  5  6  1  0
  6  7  1  0
  7  8  1  0
  8  9  1  0
  9 10  1  0
 10 11  1  0
 11 12  1  0
 12 13  1  0
 13 14  1  0
 14 15  1  0
 15 16  1  0
 16 17  1  0
 17 18  1  0
 18 19  1  0
 19 20  1  0
 20 21  1  0
 21 22  1  0
 22 23  1  0
 23 24  1  0
 24 25  1  0
 25 26  1  0
 26 27  1  0
  1 28  1  0
  1 29  1  0
  1 30  1  0
  2 31  1  0
  2 32  1  0
  4 33  1  0
  4 34  1  0
  5 35  1  0
  5 36  1  0
  7 37  1  0
  7 38  1  0
  8 39  1  0
  8 40  1  0
 10 41  1  0
 10 42  1  0
 11 43  1  0
 11 44  1  0
 13 45  1  0
 13 46  1  0
 14 47  1  0
 14 48  1  0
 16 49  1  0
 16 50  1  0
 17 51  1  0
 17 52  1  0
 19 53  1  0
 19 54  1  0
 20 55  1  0
 20 56  1  0
 22 57  1  0
 22 58  1  0
 23 59  1  0
 23 60  1  0
 25 61  1  0
 25 62  1  0
 26 63  1  0
 26 64  1  0
 27 65  1  0
M  END
$$$$
