
     RDKit          3D

 76 79  0  0  0  0  0  0  0  0999 V2000
    4.5475    1.4377   -3.2938 O   0  0  0  0  0  0  0  0  0  0  0  0
    3.8219    0.9640   -2.1845 C   0  0  0  0  0  0  0  0  0  0  0  0
    4.7289    0.7173   -0.9863 C   0  0  0  0  0  0  0  0  0  0  0  0
    3.9862    0.2268    0.1687 N   0  0  0  0  0  0  0  0  0  0  0  0
    4.8933    0.0490    1.2720 C   0  0  0  0  0  0  0  0  0  0  0  0
    4.2014   -0.4546    2.4955 C   0  0  0  0  0  0  0  0  0  0  0  0
    5.1394   -0.5984    3.5071 O   0  0  0  0  0  0  0  0  0  0  0  0
    2.5925    0.0157    0.0048 C   0  0  0  0  0  0  0  0  0  0  0  0
    1.7760    1.1034    0.0654 N   0  0  0  0  0  0  0  0  0  0  0  0
    0.4522    0.8413   -0.0937 C   0  0  0  0  0  0  0  0  0  0  0  0
   -0.0273   -0.4385   -0.3009 C   0  0  0  0  0  0  0  0  0  0  0  0
   -1.3272   -0.6755   -0.4795 N   0  0  0  0  0  0  0  0  0  0  0  0
   -2.2023    0.3376   -0.4605 C   0  0  0  0  0  0  0  0  0  0  0  0
   -1.7796    1.6086   -0.2600 N   0  0  0  0  0  0  0  0  0  0  0  0
   -0.4753    1.8842   -0.0767 C   0  0  0  0  0  0  0  0  0  0  0  0
   -0.0452    3.2182    0.1558 N   0  0  0  0  0  0  0  0  0  0  0  0
    0.5451    3.5209    1.4696 C   0  0  0  0  0  0  0  0  0  0  0  0
   -0.4595    4.2757    2.3184 C   0  0  0  0  0  0  0  0  0  0  0  0
   -1.2092    5.2302    1.4024 C   0  0  0  0  0  0  0  0  0  0  0  0
   -0.2551    5.6507    0.3141 C   0  0  0  0  0  0  0  0  0  0  0  0
   -0.0222    4.4544   -0.6100 C   0  0  0  0  0  0  0  0  0  0  0  0
   -3.5594   -0.1165   -0.6708 N   0  0  0  0  0  0  0  0  0  0  0  0
   -4.5755   -0.3312    0.3223 C   0  0  0  0  0  0  0  0  0  0  0  0
   -4.9250   -1.7844    0.5491 C   0  0  0  0  0  0  0  0  0  0  0  0
   -5.9240   -1.8998    1.5277 O   0  0  0  0  0  0  0  0  0  0  0  0
   -4.0077   -0.4334   -1.9937 C   0  0  0  0  0  0  0  0  0  0  0  0
   -5.0535    0.4601   -2.5674 C   0  0  0  0  0  0  0  0  0  0  0  0
   -5.3581   -0.0189   -3.8643 O   0  0  0  0  0  0  0  0  0  0  0  0
    0.8509   -1.5311   -0.3541 C   0  0  0  0  0  0  0  0  0  0  0  0
    2.1543   -1.2478   -0.1954 N   0  0  0  0  0  0  0  0  0  0  0  0
    0.4740   -2.8934   -0.5290 N   0  0  0  0  0  0  0  0  0  0  0  0
    1.4469   -3.9290   -0.8077 C   0  0  0  0  0  0  0  0  0  0  0  0
    1.6632   -4.7308    0.4510 C   0  0  0  0  0  0  0  0  0  0  0  0
    0.3109   -4.9495    1.1320 C   0  0  0  0  0  0  0  0  0  0  0  0
   -0.7658   -4.8463    0.0755 C   0  0  0  0  0  0  0  0  0  0  0  0
   -0.8832   -3.4233   -0.4414 C   0  0  0  0  0  0  0  0  0  0  0  0
    5.2686    0.8229   -3.5392 H   0  0  0  0  0  0  0  0  0  0  0  0
    3.0147    1.6875   -1.9431 H   0  0  0  0  0  0  0  0  0  0  0  0
    3.3073    0.0349   -2.5220 H   0  0  0  0  0  0  0  0  0  0  0  0
    5.4589   -0.0651   -1.2820 H   0  0  0  0  0  0  0  0  0  0  0  0
    5.1806    1.6723   -0.6921 H   0  0  0  0  0  0  0  0  0  0  0  0
    5.3912    1.0086    1.4541 H   0  0  0  0  0  0  0  0  0  0  0  0
    5.6022   -0.7486    0.9558 H   0  0  0  0  0  0  0  0  0  0  0  0
    3.4007    0.2720    2.7846 H   0  0  0  0  0  0  0  0  0  0  0  0
    3.7132   -1.4155    2.2297 H   0  0  0  0  0  0  0  0  0  0  0  0
    5.4434   -1.5358    3.6019 H   0  0  0  0  0  0  0  0  0  0  0  0
    1.4914    4.0519    1.3600 H   0  0  0  0  0  0  0  0  0  0  0  0
    0.7610    2.5768    2.0099 H   0  0  0  0  0  0  0  0  0  0  0  0
   -1.1951    3.5934    2.8239 H   0  0  0  0  0  0  0  0  0  0  0  0
    0.0886    4.8346    3.0879 H   0  0  0  0  0  0  0  0  0  0  0  0
   -1.4689    6.1173    2.0214 H   0  0  0  0  0  0  0  0  0  0  0  0
   -2.1288    4.7346    1.0310 H   0  0  0  0  0  0  0  0  0  0  0  0
   -0.6427    6.5141   -0.2242 H   0  0  0  0  0  0  0  0  0  0  0  0
    0.7192    5.9137    0.8299 H   0  0  0  0  0  0  0  0  0  0  0  0
    1.0380    4.5198   -0.9998 H   0  0  0  0  0  0  0  0  0  0  0  0
   -0.6944    4.4789   -1.4617 H   0  0  0  0  0  0  0  0  0  0  0  0
   -5.5202    0.2489    0.1189 H   0  0  0  0  0  0  0  0  0  0  0  0
   -4.1979    0.0515    1.2902 H   0  0  0  0  0  0  0  0  0  0  0  0
   -5.3357   -2.2254   -0.3759 H   0  0  0  0  0  0  0  0  0  0  0  0
   -4.0572   -2.3489    0.9667 H   0  0  0  0  0  0  0  0  0  0  0  0
   -5.5933   -1.6415    2.4260 H   0  0  0  0  0  0  0  0  0  0  0  0
   -4.3272   -1.4998   -1.9696 H   0  0  0  0  0  0  0  0  0  0  0  0
   -3.1340   -0.4180   -2.6912 H   0  0  0  0  0  0  0  0  0  0  0  0
   -6.0348    0.3465   -2.0213 H   0  0  0  0  0  0  0  0  0  0  0  0
   -4.6890    1.4996   -2.5722 H   0  0  0  0  0  0  0  0  0  0  0  0
   -4.7116    0.2890   -4.5418 H   0  0  0  0  0  0  0  0  0  0  0  0
    2.3911   -3.4874   -1.2011 H   0  0  0  0  0  0  0  0  0  0  0  0
    1.0446   -4.5783   -1.6357 H   0  0  0  0  0  0  0  0  0  0  0  0
    2.2717   -4.1208    1.1411 H   0  0  0  0  0  0  0  0  0  0  0  0
    2.1482   -5.7113    0.2372 H   0  0  0  0  0  0  0  0  0  0  0  0
    0.1432   -4.2283    1.9449 H   0  0  0  0  0  0  0  0  0  0  0  0
    0.3036   -5.9753    1.5571 H   0  0  0  0  0  0  0  0  0  0  0  0
   -1.7436   -5.1147    0.5205 H   0  0  0  0  0  0  0  0  0  0  0  0
   -0.5564   -5.5556   -0.7345 H   0  0  0  0  0  0  0  0  0  0  0  0
   -1.4134   -3.4345   -1.3891 H   0  0  0  0  0  0  0  0  0  0  0  0
   -1.4670   -2.8573    0.3421 H   0  0  0  0  0  0  0  0  0  0  0  0
  1  2  1  0
  2  3  1  0
  3  4  1  0
  4  5  1  0
  5  6  1  0
  6  7  1  0
  4  8  1  0
  8  9  2  0
  9 10  1  0
 10 11  2  0
 11 12  1  0
 12 13  2  0
 13 14  1  0
 14 15  2  0
 15 16  1  0
 16 17  1  0
 17 18  1  0
 18 19  1  0
 19 20  1  0
 20 21  1  0
 13 22  1  0
 22 23  1  0
 23 24  1  0
 24 25  1  0
 22 26  1  0
 26 27  1  0
 27 28  1  0
 11 29  1  0
 29 30  2  0
 29 31  1  0
 31 32  1  0
 32 33  1  0
 33 34  1  0
 34 35  1  0
 35 36  1  0
 30  8  1  0
 36 31  1  0
 15 10  1  0
 21 16  1  0
  1 37  1  0
  2 38  1  0
  2 39  1  0
  3 40  1  0
  3 41  1  0
  5 42  1  0
  5 43  1  0
  6 44  1  0
  6 45  1  0
  7 46  1  0
 17 47  1  0
 17 48  1  0
 18 49  1  0
 18 50  1  0
 19 51  1  0
 19 52  1  0
 20 53  1  0
 20 54  1  0
 21 55  1  0
 21 56  1  0
 23 57  1  0
 23 58  1  0
 24 59  1  0
 24 60  1  0
 25 61  1  0
 26 62  1  0
 26 63  1  0
 27 64  1  0
 27 65  1  0
 28 66  1  0
 32 67  1  0
 32 68  1  0
 33 69  1  0
 33 70  1  0
 34 71  1  0
 34 72  1  0
 35 73  1  0
 35 74  1  0
 36 75  1  0
 36 76  1  0
M  END
$$$$
