
     RDKit          3D

 68 73  0  0  0  0  0  0  0  0999 V2000
   -6.1450    4.7488    1.6389 O   0  0  0  0  0  0  0  0  0  0  0  0
   -5.0241    4.3936    1.1874 N   0  0  0  0  0  4  0  0  0  0  0  0
   -3.8943    4.8869    1.7764 O   0  0  0  0  0  1  0  0  0  0  0  0
   -4.9048    3.5052    0.0979 C   0  0  0  0  0  0  0  0  0  0  0  0
   -5.9559    3.5119   -0.8214 C   0  0  0  0  0  0  0  0  0  0  0  0
   -5.9036    2.6670   -1.9026 C   0  0  0  0  0  0  0  0  0  0  0  0
   -4.8213    1.8191   -2.0780 C   0  0  0  0  0  0  0  0  0  0  0  0
   -3.7705    1.8015   -1.1728 C   0  0  0  0  0  0  0  0  0  0  0  0
   -3.8426    2.6508   -0.1031 C   0  0  0  0  0  0  0  0  0  0  0  0
   -2.6898    2.4230    0.6188 C   0  0  0  0  0  0  0  0  0  0  0  0
   -2.1947    2.9453    1.7532 N   0  0  0  0  0  0  0  0  0  0  0  0
   -1.0251    2.5838    2.2977 C   0  0  0  0  0  0  0  0  0  0  0  0
   -0.3345    1.6554    1.6573 N   0  0  0  0  0  0  0  0  0  0  0  0
   -0.7354    1.0524    0.4935 C   0  0  0  0  0  0  0  0  0  0  0  0
    0.1757    0.1945   -0.1232 N   0  0  0  0  0  0  0  0  0  0  0  0
    1.0590    0.7089   -1.1849 C   0  0  0  0  0  0  0  0  0  0  0  0
    1.8966   -0.4002   -1.7277 C   0  0  0  0  0  0  0  0  0  0  0  0
    2.5848   -1.1908   -0.7581 N   0  0  0  0  0  0  0  0  0  0  0  0
    3.8949   -0.7036   -0.4362 C   0  0  0  0  0  0  0  0  0  0  0  0
    4.5627   -1.6050    0.5715 C   0  0  0  0  0  0  0  0  0  0  0  0
    5.9141   -1.0123    0.8400 C   0  0  0  0  0  0  0  0  0  0  0  0
    6.1077   -0.0892    1.8461 C   0  0  0  0  0  0  0  0  0  0  0  0
    7.4009    0.4033    2.0150 C   0  0  0  0  0  0  0  0  0  0  0  0
    8.4550    0.0007    1.2241 C   0  0  0  0  0  0  0  0  0  0  0  0
    9.7028    0.5181    1.4357 F   0  0  0  0  0  0  0  0  0  0  0  0
    8.2281   -0.9198    0.2314 C   0  0  0  0  0  0  0  0  0  0  0  0
    9.2655   -1.3177   -0.5487 F   0  0  0  0  0  0  0  0  0  0  0  0
    6.9478   -1.4342    0.0332 C   0  0  0  0  0  0  0  0  0  0  0  0
    1.8641   -1.4353    0.4643 C   0  0  0  0  0  0  0  0  0  0  0  0
    0.3698   -1.1862    0.2082 C   0  0  0  0  0  0  0  0  0  0  0  0
   -1.9446    1.4310   -0.0527 C   0  0  0  0  0  0  0  0  0  0  0  0
   -2.6214    1.0592   -1.1388 N   0  0  0  0  0  0  0  0  0  0  0  0
   -2.3451   -0.0089   -2.0443 C   0  0  0  0  0  0  0  0  0  0  0  0
   -3.1783   -1.2276   -1.8169 C   0  0  0  0  0  0  0  0  0  0  0  0
   -3.1303   -1.9090   -0.5534 C   0  0  0  0  0  0  0  0  0  0  0  0
   -3.9057   -1.4802    0.5250 C   0  0  0  0  0  0  0  0  0  0  0  0
   -3.8294   -2.2157    1.6806 C   0  0  0  0  0  0  0  0  0  0  0  0
   -3.0330   -3.3335    1.8059 C   0  0  0  0  0  0  0  0  0  0  0  0
   -2.2607   -3.7698    0.7487 C   0  0  0  0  0  0  0  0  0  0  0  0
   -2.3424   -3.0297   -0.4024 C   0  0  0  0  0  0  0  0  0  0  0  0
   -6.8053    4.1596   -0.7073 H   0  0  0  0  0  0  0  0  0  0  0  0
   -6.7127    2.6699   -2.6133 H   0  0  0  0  0  0  0  0  0  0  0  0
   -4.8193    1.1800   -2.9302 H   0  0  0  0  0  0  0  0  0  0  0  0
   -0.6396    3.0140    3.2164 H   0  0  0  0  0  0  0  0  0  0  0  0
    0.5013    1.1840   -1.9998 H   0  0  0  0  0  0  0  0  0  0  0  0
    1.6965    1.5232   -0.7441 H   0  0  0  0  0  0  0  0  0  0  0  0
    1.2396   -1.0299   -2.3967 H   0  0  0  0  0  0  0  0  0  0  0  0
    2.6592    0.0600   -2.4112 H   0  0  0  0  0  0  0  0  0  0  0  0
    4.5193   -0.6512   -1.3337 H   0  0  0  0  0  0  0  0  0  0  0  0
    3.8554    0.3140    0.0375 H   0  0  0  0  0  0  0  0  0  0  0  0
    4.7027   -2.6272    0.1242 H   0  0  0  0  0  0  0  0  0  0  0  0
    4.0043   -1.7612    1.4956 H   0  0  0  0  0  0  0  0  0  0  0  0
    5.2813    0.2236    2.4627 H   0  0  0  0  0  0  0  0  0  0  0  0
    7.5354    1.1290    2.8113 H   0  0  0  0  0  0  0  0  0  0  0  0
    6.8241   -2.1478   -0.7529 H   0  0  0  0  0  0  0  0  0  0  0  0
    2.2143   -0.8305    1.3223 H   0  0  0  0  0  0  0  0  0  0  0  0
    1.9545   -2.5118    0.7087 H   0  0  0  0  0  0  0  0  0  0  0  0
   -0.2646   -1.5853    0.9955 H   0  0  0  0  0  0  0  0  0  0  0  0
    0.1740   -1.7701   -0.7371 H   0  0  0  0  0  0  0  0  0  0  0  0
   -2.6276    0.3644   -3.0729 H   0  0  0  0  0  0  0  0  0  0  0  0
   -1.3168   -0.3023   -2.0904 H   0  0  0  0  0  0  0  0  0  0  0  0
   -4.2589   -0.9755   -2.0429 H   0  0  0  0  0  0  0  0  0  0  0  0
   -2.9315   -1.9681   -2.6362 H   0  0  0  0  0  0  0  0  0  0  0  0
   -4.5376   -0.5947    0.4284 H   0  0  0  0  0  0  0  0  0  0  0  0
   -4.4460   -1.8658    2.5218 H   0  0  0  0  0  0  0  0  0  0  0  0
   -3.0333   -3.8535    2.7530 H   0  0  0  0  0  0  0  0  0  0  0  0
   -1.6450   -4.6494    0.8731 H   0  0  0  0  0  0  0  0  0  0  0  0
   -1.7208   -3.3897   -1.2373 H   0  0  0  0  0  0  0  0  0  0  0  0
  1  2  2  0
  2  3  1  0
  2  4  1  0
  4  5  2  0
  5  6  1  0
  6  7  2  0
  7  8  1  0
  8  9  2  0
  9 10  1  0
 10 11  2  0
 11 12  1  0
 12 13  2  0
 13 14  1  0
 14 15  1  0
 15 16  1  0
 16 17  1  0
 17 18  1  0
 18 19  1  0
 19 20  1  0
 20 21  1  0
 21 22  2  0
 22 23  1  0
 23 24  2  0
 24 25  1  0
 24 26  1  0
 26 27  1  0
 26 28  2  0
 18 29  1  0
 29 30  1  0
 14 31  2  0
 31 32  1  0
 32 33  1  0
 33 34  1  0
 34 35  1  0
 35 36  2  0
 36 37  1  0
 37 38  2  0
 38 39  1  0
 39 40  2  0
  9  4  1  0
 31 10  1  0
 40 35  1  0
 32  8  1  0
 30 15  1  0
 28 21  1  0
  5 41  1  0
  6 42  1  0
  7 43  1  0
 12 44  1  0
 16 45  1  0
 16 46  1  0
 17 47  1  0
 17 48  1  0
 19 49  1  0
 19 50  1  0
 20 51  1  0
 20 52  1  0
 22 53  1  0
 23 54  1  0
 28 55  1  0
 29 56  1  0
 29 57  1  0
 30 58  1  0
 30 59  1  0
 33 60  1  0
 33 61  1  0
 34 62  1  0
 34 63  1  0
 36 64  1  0
 37 65  1  0
 38 66  1  0
 39 67  1  0
 40 68  1  0
M  CHG  2   2   1   3  -1
M  END
$$$$
