
     RDKit          3D

 41 43  0  0  0  0  0  0  0  0999 V2000
   -2.0182    1.1496   -1.6160 C   0  0  0  0  0  0  0  0  0  0  0  0
   -2.3808    0.0388   -0.5864 C   0  0  1  0  0  0  0  0  0  0  0  0
   -1.0816   -0.5352   -0.0942 C   0  0  0  0  0  0  0  0  0  0  0  0
    0.1211    0.0331   -0.4203 C   0  0  0  0  0  0  0  0  0  0  0  0
    1.3198   -0.4885    0.0343 C   0  0  0  0  0  0  0  0  0  0  0  0
    2.6404    0.1209   -0.3096 C   0  0  0  0  0  0  0  0  0  0  0  0
    3.0925    0.8396    0.8570 N   0  0  0  0  0  0  0  0  0  0  0  0
    4.3720    1.4803    0.6571 C   0  0  0  0  0  0  0  0  0  0  0  0
    5.4394    0.5178    0.3223 C   0  0  0  0  0  0  0  0  0  0  0  0
    6.2924   -0.2372    0.0750 N   0  0  0  0  0  0  0  0  0  0  0  0
    4.8148    2.5796    1.5510 C   0  0  0  0  0  0  0  0  0  0  0  0
    4.4432    2.8186    0.0609 C   0  0  0  0  0  0  0  0  0  0  0  0
    1.2790   -1.6152    0.8388 C   0  0  0  0  0  0  0  0  0  0  0  0
    2.4834   -2.1148    1.2785 F   0  0  0  0  0  0  0  0  0  0  0  0
    0.0893   -2.2052    1.1813 C   0  0  0  0  0  0  0  0  0  0  0  0
   -1.1076   -1.6511    0.7035 C   0  0  0  0  0  0  0  0  0  0  0  0
   -2.2357   -2.2861    1.0800 F   0  0  0  0  0  0  0  0  0  0  0  0
   -3.0667    0.6965    0.5351 C   0  0  0  0  0  0  0  0  0  0  0  0
   -4.3923    0.2053    0.9765 C   0  0  0  0  0  0  0  0  0  0  0  0
   -5.3613   -0.1810   -0.5400 S   0  0  0  0  0  0  0  0  0  0  0  0
   -4.2404   -1.2195   -1.4465 C   0  0  0  0  0  0  0  0  0  0  0  0
   -4.7323   -2.2584   -2.2339 N   0  0  0  0  0  0  0  0  0  0  0  0
   -3.0156   -0.9680   -1.3372 N   0  0  0  0  0  0  0  0  0  0  0  0
   -1.3645    0.7337   -2.3973 H   0  0  0  0  0  0  0  0  0  0  0  0
   -1.6185    2.0209   -1.1009 H   0  0  0  0  0  0  0  0  0  0  0  0
   -2.9931    1.4324   -2.0658 H   0  0  0  0  0  0  0  0  0  0  0  0
    0.1864    0.9268   -1.0550 H   0  0  0  0  0  0  0  0  0  0  0  0
    2.4585    0.8946   -1.1039 H   0  0  0  0  0  0  0  0  0  0  0  0
    3.3549   -0.6350   -0.6804 H   0  0  0  0  0  0  0  0  0  0  0  0
    3.0592    0.2827    1.7265 H   0  0  0  0  0  0  0  0  0  0  0  0
    4.1450    3.0400    2.3052 H   0  0  0  0  0  0  0  0  0  0  0  0
    5.8903    2.6931    1.7951 H   0  0  0  0  0  0  0  0  0  0  0  0
    3.4772    3.3690   -0.0633 H   0  0  0  0  0  0  0  0  0  0  0  0
    5.2859    3.0821   -0.6089 H   0  0  0  0  0  0  0  0  0  0  0  0
    0.1006   -3.0764    1.8058 H   0  0  0  0  0  0  0  0  0  0  0  0
   -2.4248    0.7267    1.4784 H   0  0  0  0  0  0  0  0  0  0  0  0
   -3.2022    1.8079    0.3336 H   0  0  0  0  0  0  0  0  0  0  0  0
   -4.3702   -0.7302    1.5706 H   0  0  0  0  0  0  0  0  0  0  0  0
   -4.9053    1.0020    1.5545 H   0  0  0  0  0  0  0  0  0  0  0  0
   -4.9133   -2.1085   -3.2434 H   0  0  0  0  0  0  0  0  0  0  0  0
   -4.9207   -3.1897   -1.8180 H   0  0  0  0  0  0  0  0  0  0  0  0
  2  1  1  6
  2  3  1  0
  3  4  2  0
  4  5  1  0
  5  6  1  0
  6  7  1  0
  7  8  1  0
  8  9  1  0
  9 10  3  0
  8 11  1  0
 11 12  1  0
  5 13  2  0
 13 14  1  0
 13 15  1  0
 15 16  2  0
 16 17  1  0
  2 18  1  0
 18 19  1  0
 19 20  1  0
 20 21  1  0
 21 22  1  0
 21 23  2  0
 23  2  1  0
 16  3  1  0
 12  8  1  0
  1 24  1  0
  1 25  1  0
  1 26  1  0
  4 27  1  0
  6 28  1  0
  6 29  1  0
  7 30  1  0
 11 31  1  0
 11 32  1  0
 12 33  1  0
 12 34  1  0
 15 35  1  0
 18 36  1  0
 18 37  1  0
 19 38  1  0
 19 39  1  0
 22 40  1  0
 22 41  1  0
M  END
$$$$
