
     RDKit          3D

 20 20  0  0  0  0  0  0  0  0999 V2000
    3.0341   -1.4912    0.2174 C   0  0  0  0  0  0  0  0  0  0  0  0
    2.6644   -0.1528   -0.0350 O   0  0  0  0  0  0  0  0  0  0  0  0
    1.3866    0.3340   -0.1064 C   0  0  0  0  0  0  0  0  0  0  0  0
    1.1907    1.6772   -0.3628 C   0  0  0  0  0  0  0  0  0  0  0  0
   -0.1051    2.1689   -0.4348 C   0  0  0  0  0  0  0  0  0  0  0  0
   -1.2079    1.3598   -0.2585 C   0  0  0  0  0  0  0  0  0  0  0  0
   -1.0496   -0.0002    0.0019 C   0  0  0  0  0  0  0  0  0  0  0  0
    0.2683   -0.4310    0.0616 C   0  0  0  0  0  0  0  0  0  0  0  0
   -2.1458   -0.9527    0.2058 C   0  0  0  0  0  0  0  0  0  0  0  0
   -3.4444   -0.3801    0.1180 N   0  0  0  0  0  0  0  0  0  0  0  0
   -1.9954   -2.1744    0.4396 O   0  0  0  0  0  0  0  0  0  0  0  0
    2.3584   -2.0078    0.9250 H   0  0  0  0  0  0  0  0  0  0  0  0
    4.0988   -1.4708    0.5725 H   0  0  0  0  0  0  0  0  0  0  0  0
    2.9864   -2.0095   -0.7676 H   0  0  0  0  0  0  0  0  0  0  0  0
    2.0217    2.3617   -0.5102 H   0  0  0  0  0  0  0  0  0  0  0  0
   -0.3156    3.2223   -0.6348 H   0  0  0  0  0  0  0  0  0  0  0  0
   -2.2323    1.7069   -0.3073 H   0  0  0  0  0  0  0  0  0  0  0  0
    0.4062   -1.4915    0.2644 H   0  0  0  0  0  0  0  0  0  0  0  0
   -3.6836   -0.1909    1.1106 H   0  0  0  0  0  0  0  0  0  0  0  0
   -4.2360   -0.0778   -0.4994 H   0  0  0  0  0  0  0  0  0  0  0  0
  1  2  1  0
  2  3  1  0
  3  4  2  0
  4  5  1  0
  5  6  2  0
  6  7  1  0
  7  8  2  0
  7  9  1  0
  9 10  1  0
  9 11  2  0
  8  3  1  0
  1 12  1  0
  1 13  1  0
  1 14  1  0
  4 15  1  0
  5 16  1  0
  6 17  1  0
  8 18  1  0
 10 19  1  0
 10 20  1  0
M  END
$$$$
