
     RDKit          3D

 49 50  0  0  0  0  0  0  0  0999 V2000
    3.1705   -0.8092   -1.3228 C   0  0  1  0  0  0  0  0  0  0  0  0
    3.0525    0.5800   -0.6929 C   0  0  0  0  0  0  0  0  0  0  0  0
    3.4883    0.4952    0.7161 C   0  0  0  0  0  0  0  0  0  0  0  0
    3.8594    0.4137    1.8615 C   0  0  0  0  0  0  0  0  0  0  0  0
    4.3296    0.3032    3.2485 C   0  0  0  0  0  0  0  0  0  0  0  0
    5.2700    1.3051    3.5572 O   0  0  0  0  0  0  0  0  0  0  0  0
    6.3356    1.1218    2.6695 C   0  0  0  0  0  0  0  0  0  0  0  0
    2.7676   -0.8313   -2.7006 N   0  0  0  0  0  0  0  0  0  0  0  0
    1.4583   -1.9460   -2.8622 S   0  0  0  0  0  0  0  0  0  0  0  0
    1.9925   -3.2878   -2.4170 O   0  0  0  0  0  0  0  0  0  0  0  0
    1.0432   -2.0784   -4.3112 O   0  0  0  0  0  0  0  0  0  0  0  0
    0.0672   -1.5036   -1.9356 C   0  0  0  0  0  0  0  0  0  0  0  0
   -0.8628   -0.6726   -2.5580 C   0  0  0  0  0  0  0  0  0  0  0  0
   -2.0154   -0.2489   -1.9248 C   0  0  0  0  0  0  0  0  0  0  0  0
   -2.3058   -0.6302   -0.6348 C   0  0  0  0  0  0  0  0  0  0  0  0
   -1.3875   -1.4533   -0.0149 C   0  0  0  0  0  0  0  0  0  0  0  0
   -0.2393   -1.8773   -0.6410 C   0  0  0  0  0  0  0  0  0  0  0  0
   -3.5299   -0.1423   -0.0497 C   0  0  0  0  0  0  0  0  0  0  0  0
   -4.0198    1.1026   -0.4143 C   0  0  0  0  0  0  0  0  0  0  0  0
   -5.1836    1.6205    0.1121 C   0  0  0  0  0  0  0  0  0  0  0  0
   -5.9103    0.9004    1.0363 C   0  0  0  0  0  0  0  0  0  0  0  0
   -7.0918    1.2240    1.6859 O   0  0  0  0  0  0  0  0  0  0  0  0
   -7.6955    2.4709    1.4004 C   0  0  0  0  0  0  0  0  0  0  0  0
   -5.4466   -0.3581    1.4273 C   0  0  0  0  0  0  0  0  0  0  0  0
   -4.2647   -0.8560    0.8767 C   0  0  0  0  0  0  0  0  0  0  0  0
    4.6031   -1.2550   -1.2151 C   0  0  0  0  0  0  0  0  0  0  0  0
    5.3384   -1.6133   -2.3463 O   0  0  0  0  0  0  0  0  0  0  0  0
    5.1938   -1.3218   -0.0984 O   0  0  0  0  0  0  0  0  0  0  0  0
    2.5777   -1.4888   -0.6774 H   0  0  0  0  0  0  0  0  0  0  0  0
    2.0103    0.9123   -0.7064 H   0  0  0  0  0  0  0  0  0  0  0  0
    3.7353    1.2932   -1.2008 H   0  0  0  0  0  0  0  0  0  0  0  0
    4.8714   -0.6651    3.4134 H   0  0  0  0  0  0  0  0  0  0  0  0
    3.4538    0.3243    3.9072 H   0  0  0  0  0  0  0  0  0  0  0  0
    7.1356    1.8571    2.8221 H   0  0  0  0  0  0  0  0  0  0  0  0
    5.9325    1.2533    1.6387 H   0  0  0  0  0  0  0  0  0  0  0  0
    6.8083    0.1141    2.7852 H   0  0  0  0  0  0  0  0  0  0  0  0
    2.3711    0.1187   -2.9184 H   0  0  0  0  0  0  0  0  0  0  0  0
   -0.7085   -0.3204   -3.5892 H   0  0  0  0  0  0  0  0  0  0  0  0
   -2.7057    0.4022   -2.4663 H   0  0  0  0  0  0  0  0  0  0  0  0
   -1.6009   -1.7620    0.9978 H   0  0  0  0  0  0  0  0  0  0  0  0
    0.4781   -2.5167   -0.1689 H   0  0  0  0  0  0  0  0  0  0  0  0
   -3.5354    1.7372   -1.1190 H   0  0  0  0  0  0  0  0  0  0  0  0
   -5.6267    2.5761   -0.1202 H   0  0  0  0  0  0  0  0  0  0  0  0
   -8.1508    2.3942    0.3774 H   0  0  0  0  0  0  0  0  0  0  0  0
   -6.8985    3.2321    1.3311 H   0  0  0  0  0  0  0  0  0  0  0  0
   -8.4735    2.7356    2.1449 H   0  0  0  0  0  0  0  0  0  0  0  0
   -5.9322   -1.0255    2.1514 H   0  0  0  0  0  0  0  0  0  0  0  0
   -3.8918   -1.8274    1.1681 H   0  0  0  0  0  0  0  0  0  0  0  0
    6.1332   -2.2225   -2.2224 H   0  0  0  0  0  0  0  0  0  0  0  0
  1  2  1  0
  2  3  1  0
  3  4  3  0
  4  5  1  0
  5  6  1  0
  6  7  1  0
  1  8  1  0
  8  9  1  0
  9 10  2  0
  9 11  2  0
  9 12  1  0
 12 13  2  0
 13 14  1  0
 14 15  2  0
 15 16  1  0
 16 17  2  0
 15 18  1  0
 18 19  2  0
 19 20  1  0
 20 21  2  0
 21 22  1  0
 22 23  1  0
 21 24  1  0
 24 25  2  0
  1 26  1  0
 26 27  1  0
 26 28  2  0
 17 12  1  0
 25 18  1  0
  1 29  1  1
  2 30  1  0
  2 31  1  0
  5 32  1  0
  5 33  1  0
  7 34  1  0
  7 35  1  0
  7 36  1  0
  8 37  1  0
 13 38  1  0
 14 39  1  0
 16 40  1  0
 17 41  1  0
 19 42  1  0
 20 43  1  0
 23 44  1  0
 23 45  1  0
 23 46  1  0
 24 47  1  0
 25 48  1  0
 27 49  1  0
M  END
$$$$
