
     RDKit          3D

 62 66  0  0  0  0  0  0  0  0999 V2000
    2.8147    4.6081   -1.6324 C   0  0  0  0  0  0  0  0  0  0  0  0
    2.1753    4.4369   -0.2862 C   0  0  0  0  0  0  0  0  0  0  0  0
    2.5087    3.1038    0.3296 C   0  0  0  0  0  0  0  0  0  0  0  0
    2.0113    1.9908   -0.5815 C   0  0  0  0  0  0  0  0  0  0  0  0
    2.3088    0.6347   -0.0230 C   0  0  0  0  0  0  0  0  0  0  0  0
    3.3292   -0.1599   -0.4623 N   0  0  0  0  0  0  0  0  0  0  0  0
    3.3515   -1.2772    0.2185 N   0  0  0  0  0  0  0  0  0  0  0  0
    4.3158   -2.3049   -0.0386 C   0  0  0  0  0  0  0  0  0  0  0  0
    4.1266   -3.1507   -1.1173 C   0  0  0  0  0  0  0  0  0  0  0  0
    2.7306   -2.9480   -2.1388 Cl  0  0  0  0  0  0  0  0  0  0  0  0
    5.0171   -4.1646   -1.4184 C   0  0  0  0  0  0  0  0  0  0  0  0
    6.1212   -4.3402   -0.6275 C   0  0  0  0  0  0  0  0  0  0  0  0
    6.3384   -3.5188    0.4494 C   0  0  0  0  0  0  0  0  0  0  0  0
    5.4350   -2.5093    0.7344 C   0  0  0  0  0  0  0  0  0  0  0  0
    5.7403   -1.4805    2.1140 Cl  0  0  0  0  0  0  0  0  0  0  0  0
    2.3696   -1.2912    1.1308 C   0  0  0  0  0  0  0  0  0  0  0  0
    2.1206   -2.3911    2.0665 C   0  0  0  0  0  0  0  0  0  0  0  0
    1.2233   -2.3931    2.9119 O   0  0  0  0  0  0  0  0  0  0  0  0
    2.9395   -3.5132    2.0108 O   0  0  0  0  0  0  0  0  0  0  0  0
    1.7041   -0.0819    0.9819 C   0  0  0  0  0  0  0  0  0  0  0  0
    0.5422    0.3358    1.7617 C   0  0  0  0  0  0  0  0  0  0  0  0
   -0.7687    0.2116    1.0748 C   0  0  0  0  0  0  0  0  0  0  0  0
   -1.4083   -1.0179    0.9419 C   0  0  0  0  0  0  0  0  0  0  0  0
   -2.6460   -1.1628    0.3254 C   0  0  0  0  0  0  0  0  0  0  0  0
   -3.2785   -0.0447   -0.1818 C   0  0  0  0  0  0  0  0  0  0  0  0
   -4.5475   -0.2017   -0.8631 C   0  0  0  0  0  0  0  0  0  0  0  0
   -4.5489   -0.8101   -2.1396 C   0  0  0  0  0  0  0  0  0  0  0  0
   -5.6988   -0.9404   -2.8559 C   0  0  0  0  0  0  0  0  0  0  0  0
   -6.9020   -0.4797   -2.3530 C   0  0  0  0  0  0  0  0  0  0  0  0
   -6.9201    0.1044   -1.1327 C   0  0  0  0  0  0  0  0  0  0  0  0
   -5.7369    0.2451   -0.3792 C   0  0  0  0  0  0  0  0  0  0  0  0
   -5.8825    0.8153    0.9400 C   0  0  0  0  0  0  0  0  0  0  0  0
   -6.9794    1.5202    1.3301 N   0  0  0  0  0  0  0  0  0  0  0  0
   -6.7804    1.9316    2.5539 N   0  0  0  0  0  0  0  0  0  0  0  0
   -5.6094    1.5147    2.9429 N   0  0  0  0  0  0  0  0  0  0  0  0
   -5.0393    0.8169    1.9463 N   0  0  0  0  0  0  0  0  0  0  0  0
   -2.6732    1.2028   -0.0704 C   0  0  0  0  0  0  0  0  0  0  0  0
   -1.4384    1.3075    0.5521 C   0  0  0  0  0  0  0  0  0  0  0  0
    3.5365    3.7936   -1.8719 H   0  0  0  0  0  0  0  0  0  0  0  0
    2.0492    4.6764   -2.4514 H   0  0  0  0  0  0  0  0  0  0  0  0
    3.4253    5.5558   -1.6365 H   0  0  0  0  0  0  0  0  0  0  0  0
    2.5927    5.2180    0.4157 H   0  0  0  0  0  0  0  0  0  0  0  0
    1.0794    4.5794   -0.4120 H   0  0  0  0  0  0  0  0  0  0  0  0
    2.1346    3.0431    1.3505 H   0  0  0  0  0  0  0  0  0  0  0  0
    3.6272    3.0310    0.3434 H   0  0  0  0  0  0  0  0  0  0  0  0
    0.9483    2.1506   -0.7494 H   0  0  0  0  0  0  0  0  0  0  0  0
    2.5533    2.0461   -1.5555 H   0  0  0  0  0  0  0  0  0  0  0  0
    4.8805   -4.8324   -2.2593 H   0  0  0  0  0  0  0  0  0  0  0  0
    6.8468   -5.1349   -0.8390 H   0  0  0  0  0  0  0  0  0  0  0  0
    7.2099   -3.6860    1.0437 H   0  0  0  0  0  0  0  0  0  0  0  0
    2.8432   -4.3021    2.6413 H   0  0  0  0  0  0  0  0  0  0  0  0
    0.5975    1.4164    2.0970 H   0  0  0  0  0  0  0  0  0  0  0  0
    0.5348   -0.2161    2.7397 H   0  0  0  0  0  0  0  0  0  0  0  0
   -0.9081   -1.8805    1.3369 H   0  0  0  0  0  0  0  0  0  0  0  0
   -3.1225   -2.1456    0.2382 H   0  0  0  0  0  0  0  0  0  0  0  0
   -3.6128   -1.1626   -2.5193 H   0  0  0  0  0  0  0  0  0  0  0  0
   -5.7056   -1.4034   -3.8303 H   0  0  0  0  0  0  0  0  0  0  0  0
   -7.8185   -0.5998   -2.9584 H   0  0  0  0  0  0  0  0  0  0  0  0
   -7.8742    0.4614   -0.7510 H   0  0  0  0  0  0  0  0  0  0  0  0
   -4.1071    0.3980    2.1020 H   0  0  0  0  0  0  0  0  0  0  0  0
   -3.1198    2.1019   -0.4464 H   0  0  0  0  0  0  0  0  0  0  0  0
   -0.9564    2.2931    0.6490 H   0  0  0  0  0  0  0  0  0  0  0  0
  1  2  1  0
  2  3  1  0
  3  4  1  0
  4  5  1  0
  5  6  2  0
  6  7  1  0
  7  8  1  0
  8  9  2  0
  9 10  1  0
  9 11  1  0
 11 12  2  0
 12 13  1  0
 13 14  2  0
 14 15  1  0
  7 16  1  0
 16 17  1  0
 17 18  2  0
 17 19  1  0
 16 20  2  0
 20 21  1  0
 21 22  1  0
 22 23  2  0
 23 24  1  0
 24 25  2  0
 25 26  1  0
 26 27  2  0
 27 28  1  0
 28 29  2  0
 29 30  1  0
 30 31  2  0
 31 32  1  0
 32 33  2  0
 33 34  1  0
 34 35  2  0
 35 36  1  0
 25 37  1  0
 37 38  2  0
 20  5  1  0
 38 22  1  0
 14  8  1  0
 31 26  1  0
 36 32  1  0
  1 39  1  0
  1 40  1  0
  1 41  1  0
  2 42  1  0
  2 43  1  0
  3 44  1  0
  3 45  1  0
  4 46  1  0
  4 47  1  0
 11 48  1  0
 12 49  1  0
 13 50  1  0
 19 51  1  0
 21 52  1  0
 21 53  1  0
 23 54  1  0
 24 55  1  0
 27 56  1  0
 28 57  1  0
 29 58  1  0
 30 59  1  0
 36 60  1  0
 37 61  1  0
 38 62  1  0
M  END
$$$$
