
     RDKit          3D

 48 51  0  0  0  0  0  0  0  0999 V2000
   -2.0067   -4.2749    1.7860 C   0  0  0  0  0  0  0  0  0  0  0  0
   -1.9961   -3.0386    1.1233 O   0  0  0  0  0  0  0  0  0  0  0  0
   -0.8434   -2.5947    0.4569 C   0  0  0  0  0  0  0  0  0  0  0  0
    0.2985   -3.3834    0.4509 C   0  0  0  0  0  0  0  0  0  0  0  0
    1.4085   -2.9828   -0.1761 N   0  0  0  0  0  0  0  0  0  0  0  0
    1.4736   -1.8103   -0.8244 C   0  0  0  0  0  0  0  0  0  0  0  0
    2.7045   -1.4134   -1.5317 C   0  0  0  0  0  0  0  0  0  0  0  0
    3.6184   -0.6676   -0.8845 O   0  0  0  0  0  0  0  0  0  0  0  0
    3.7771    0.5121   -0.2805 C   0  0  0  0  0  0  0  0  0  0  0  0
    2.8708    1.5273   -0.1063 C   0  0  0  0  0  0  0  0  0  0  0  0
    3.1291    2.7204    0.5364 C   0  0  0  0  0  0  0  0  0  0  0  0
    4.3826    2.9330    1.0503 C   0  0  0  0  0  0  0  0  0  0  0  0
    4.6922    4.0852    1.6908 F   0  0  0  0  0  0  0  0  0  0  0  0
    5.3304    1.9435    0.9016 C   0  0  0  0  0  0  0  0  0  0  0  0
    5.0575    0.7610    0.2591 C   0  0  0  0  0  0  0  0  0  0  0  0
    6.1415   -0.2493    0.1457 C   0  0  0  0  0  0  0  0  0  0  0  0
    0.3593   -1.0260   -0.8274 C   0  0  0  0  0  0  0  0  0  0  0  0
   -0.8249   -1.3910   -0.1911 C   0  0  0  0  0  0  0  0  0  0  0  0
   -1.9891   -0.4864   -0.2386 C   0  0  0  0  0  0  0  0  0  0  0  0
   -3.2083   -0.6946    0.3267 C   0  0  0  0  0  0  0  0  0  0  0  0
   -4.0193    0.4107    0.0417 C   0  0  0  0  0  0  0  0  0  0  0  0
   -3.2442    1.2605   -0.6998 C   0  0  0  0  0  0  0  0  0  0  0  0
   -2.0125    0.7094   -0.8658 N   0  0  0  0  0  0  0  0  0  0  0  0
   -3.7775    2.5305   -1.1911 C   0  0  0  0  0  0  0  0  0  0  0  0
   -4.9487    3.0907   -0.4614 C   0  0  0  0  0  0  0  0  0  0  0  0
   -5.9002    2.0345   -0.0828 N   0  0  0  0  0  0  0  0  0  0  0  0
   -5.3824    0.7839    0.3696 C   0  0  0  0  0  0  0  0  0  0  0  0
   -6.1096    0.0351    1.0379 O   0  0  0  0  0  0  0  0  0  0  0  0
   -1.1183   -4.3504    2.4689 H   0  0  0  0  0  0  0  0  0  0  0  0
   -2.8867   -4.4160    2.4297 H   0  0  0  0  0  0  0  0  0  0  0  0
   -1.9641   -5.1056    1.0752 H   0  0  0  0  0  0  0  0  0  0  0  0
    0.2579   -4.3233    0.9660 H   0  0  0  0  0  0  0  0  0  0  0  0
    2.4212   -1.0115   -2.5517 H   0  0  0  0  0  0  0  0  0  0  0  0
    3.2069   -2.4020   -1.8176 H   0  0  0  0  0  0  0  0  0  0  0  0
    1.8772    1.4107   -0.4940 H   0  0  0  0  0  0  0  0  0  0  0  0
    2.3827    3.4986    0.6530 H   0  0  0  0  0  0  0  0  0  0  0  0
    6.3185    2.1267    1.3139 H   0  0  0  0  0  0  0  0  0  0  0  0
    7.1359    0.2023    0.0697 H   0  0  0  0  0  0  0  0  0  0  0  0
    5.9572   -0.8662   -0.7822 H   0  0  0  0  0  0  0  0  0  0  0  0
    6.0246   -0.9514    0.9989 H   0  0  0  0  0  0  0  0  0  0  0  0
    0.3781   -0.0970   -1.3513 H   0  0  0  0  0  0  0  0  0  0  0  0
   -3.5974   -1.5221    0.9116 H   0  0  0  0  0  0  0  0  0  0  0  0
   -1.2063    1.1200   -1.3846 H   0  0  0  0  0  0  0  0  0  0  0  0
   -4.1306    2.3325   -2.2477 H   0  0  0  0  0  0  0  0  0  0  0  0
   -2.9883    3.3181   -1.1938 H   0  0  0  0  0  0  0  0  0  0  0  0
   -4.6719    3.6799    0.4373 H   0  0  0  0  0  0  0  0  0  0  0  0
   -5.4737    3.7787   -1.1535 H   0  0  0  0  0  0  0  0  0  0  0  0
   -6.9042    2.2534   -0.1632 H   0  0  0  0  0  0  0  0  0  0  0  0
  1  2  1  0
  2  3  1  0
  3  4  2  0
  4  5  1  0
  5  6  2  0
  6  7  1  0
  7  8  1  0
  8  9  1  0
  9 10  2  0
 10 11  1  0
 11 12  2  0
 12 13  1  0
 12 14  1  0
 14 15  2  0
 15 16  1  0
  6 17  1  0
 17 18  2  0
 18 19  1  0
 19 20  2  0
 20 21  1  0
 21 22  2  0
 22 23  1  0
 22 24  1  0
 24 25  1  0
 25 26  1  0
 26 27  1  0
 27 28  2  0
 18  3  1  0
 23 19  1  0
 15  9  1  0
 27 21  1  0
  1 29  1  0
  1 30  1  0
  1 31  1  0
  4 32  1  0
  7 33  1  0
  7 34  1  0
 10 35  1  0
 11 36  1  0
 14 37  1  0
 16 38  1  0
 16 39  1  0
 16 40  1  0
 17 41  1  0
 20 42  1  0
 23 43  1  0
 24 44  1  0
 24 45  1  0
 25 46  1  0
 25 47  1  0
 26 48  1  0
M  END
$$$$
