
     RDKit          3D

 43 44  0  0  0  0  0  0  0  0999 V2000
    1.7640   -0.1897   -2.0679 O   0  0  0  0  0  0  0  0  0  0  0  0
    2.3261    0.5924   -0.9111 S   0  0  0  0  0  6  0  0  0  0  0  0
    3.0763    1.8101   -1.4040 O   0  0  0  0  0  0  0  0  0  0  0  0
    3.5193   -0.4285   -0.1243 C   0  0  0  0  0  0  0  0  0  0  0  0
    3.3568   -1.7976   -0.1144 C   0  0  0  0  0  0  0  0  0  0  0  0
    4.2839   -2.6370    0.5004 C   0  0  0  0  0  0  0  0  0  0  0  0
    5.4008   -2.1207    1.1226 C   0  0  0  0  0  0  0  0  0  0  0  0
    5.5598   -0.7516    1.1105 C   0  0  0  0  0  0  0  0  0  0  0  0
    4.6379    0.0837    0.4991 C   0  0  0  0  0  0  0  0  0  0  0  0
    1.0899    1.0594    0.1865 N   0  0  0  0  0  0  0  0  0  0  0  0
    1.4658    1.8388    1.3450 C   0  0  0  0  0  0  0  0  0  0  0  0
    1.4110    3.3232    1.1268 C   0  0  0  0  0  0  0  0  0  0  0  0
    1.8031    3.9005    2.3433 F   0  0  0  0  0  0  0  0  0  0  0  0
    0.1541    3.7869    0.8728 F   0  0  0  0  0  0  0  0  0  0  0  0
    2.3462    3.7106    0.1887 F   0  0  0  0  0  0  0  0  0  0  0  0
   -0.2434    0.6546   -0.0977 C   0  0  0  0  0  0  0  0  0  0  0  0
   -1.1074    1.4239   -0.8552 C   0  0  0  0  0  0  0  0  0  0  0  0
   -2.3982    1.0218   -1.1256 C   0  0  0  0  0  0  0  0  0  0  0  0
   -2.8747   -0.1733   -0.6443 C   0  0  0  0  0  0  0  0  0  0  0  0
   -4.2387   -0.5906   -0.9291 C   0  0  0  0  0  0  0  0  0  0  0  0
   -4.3769   -0.6588   -2.3321 O   0  0  0  0  0  0  0  0  0  0  0  0
   -4.5922   -1.9466   -0.3715 C   0  0  0  0  0  0  0  0  0  0  0  0
   -3.7424   -2.9140   -0.9232 F   0  0  0  0  0  0  0  0  0  0  0  0
   -4.5573   -1.9767    0.9998 F   0  0  0  0  0  0  0  0  0  0  0  0
   -5.8687   -2.3345   -0.7454 F   0  0  0  0  0  0  0  0  0  0  0  0
   -5.3020    0.3745   -0.4547 C   0  0  0  0  0  0  0  0  0  0  0  0
   -6.5265   -0.2045   -0.8194 F   0  0  0  0  0  0  0  0  0  0  0  0
   -5.2672    1.5874   -1.1149 F   0  0  0  0  0  0  0  0  0  0  0  0
   -5.3267    0.5194    0.9073 F   0  0  0  0  0  0  0  0  0  0  0  0
   -2.0417   -0.9620    0.1122 C   0  0  0  0  0  0  0  0  0  0  0  0
   -0.7320   -0.5476    0.3829 C   0  0  0  0  0  0  0  0  0  0  0  0
    2.4830   -2.2076   -0.6006 H   0  0  0  0  0  0  0  0  0  0  0  0
    4.1614   -3.7136    0.5114 H   0  0  0  0  0  0  0  0  0  0  0  0
    6.1277   -2.7802    1.6047 H   0  0  0  0  0  0  0  0  0  0  0  0
    6.4518   -0.3517    1.6083 H   0  0  0  0  0  0  0  0  0  0  0  0
    4.7789    1.1666    0.4986 H   0  0  0  0  0  0  0  0  0  0  0  0
    2.5172    1.5758    1.6295 H   0  0  0  0  0  0  0  0  0  0  0  0
    0.8383    1.4990    2.1813 H   0  0  0  0  0  0  0  0  0  0  0  0
   -0.7384    2.3615   -1.2352 H   0  0  0  0  0  0  0  0  0  0  0  0
   -3.0619    1.6294   -1.7177 H   0  0  0  0  0  0  0  0  0  0  0  0
   -4.1564   -1.5749   -2.6431 H   0  0  0  0  0  0  0  0  0  0  0  0
   -2.3142   -1.9050    0.5336 H   0  0  0  0  0  0  0  0  0  0  0  0
   -0.0862   -1.1532    0.9660 H   0  0  0  0  0  0  0  0  0  0  0  0
  1  2  2  0
  2  3  2  0
  2  4  1  0
  4  5  2  0
  5  6  1  0
  6  7  2  0
  7  8  1  0
  8  9  2  0
  2 10  1  0
 10 11  1  0
 11 12  1  0
 12 13  1  0
 12 14  1  0
 12 15  1  0
 10 16  1  0
 16 17  2  0
 17 18  1  0
 18 19  2  0
 19 20  1  0
 20 21  1  0
 20 22  1  0
 22 23  1  0
 22 24  1  0
 22 25  1  0
 20 26  1  0
 26 27  1  0
 26 28  1  0
 26 29  1  0
 19 30  1  0
 30 31  2  0
  9  4  1  0
 31 16  1  0
  5 32  1  0
  6 33  1  0
  7 34  1  0
  8 35  1  0
  9 36  1  0
 11 37  1  0
 11 38  1  0
 17 39  1  0
 18 40  1  0
 21 41  1  0
 30 42  1  0
 31 43  1  0
M  END
$$$$
