
     RDKit          3D

 11 10  0  0  0  0  0  0  0  0999 V2000
   -1.3803   -0.4531    0.2717 N   0  0  0  0  0  0  0  0  0  0  0  0
   -0.4676    0.6347    0.0796 C   0  0  0  0  0  0  0  0  0  0  0  0
    0.8992    0.3027    0.6552 C   0  0  0  0  0  0  0  0  0  0  0  0
    1.4753   -0.8064    0.0792 O   0  0  0  0  0  0  0  0  0  0  0  0
   -2.1151   -0.5221   -0.4752 H   0  0  0  0  0  0  0  0  0  0  0  0
   -0.9148   -1.3735    0.4792 H   0  0  0  0  0  0  0  0  0  0  0  0
   -0.3987    0.9943   -0.9647 H   0  0  0  0  0  0  0  0  0  0  0  0
   -0.8431    1.4914    0.6849 H   0  0  0  0  0  0  0  0  0  0  0  0
    1.5797    1.1638    0.5016 H   0  0  0  0  0  0  0  0  0  0  0  0
    0.7858    0.1853    1.7486 H   0  0  0  0  0  0  0  0  0  0  0  0
    1.3796   -1.6173    0.6496 H   0  0  0  0  0  0  0  0  0  0  0  0
  1  2  1  0
  2  3  1  0
  3  4  1  0
  1  5  1  0
  1  6  1  0
  2  7  1  0
  2  8  1  0
  3  9  1  0
  3 10  1  0
  4 11  1  0
M  END
$$$$
