
     RDKit          3D

 40 43  0  0  0  0  0  0  0  0999 V2000
    4.7614    3.4423    0.1987 C   0  0  0  0  0  0  0  0  0  0  0  0
    4.7423    1.9098    0.1344 C   0  0  0  0  0  0  0  0  0  0  0  0
    5.9678    1.3375   -0.1845 N   0  0  0  0  0  0  0  0  0  0  0  0
    5.4955   -0.4546   -0.1546 S   0  0  0  0  0  0  0  0  0  0  0  0
    3.8712   -0.2055    0.2443 C   0  0  0  0  0  0  0  0  0  0  0  0
    2.7595   -1.1645    0.4644 C   0  0  0  0  0  0  0  0  0  0  0  0
    2.8242   -2.0969    1.4017 N   0  0  0  0  0  0  0  0  0  0  0  0
    1.7012   -2.7882    1.3551 N   0  0  0  0  0  0  0  0  0  0  0  0
    0.9190   -2.3097    0.4008 C   0  0  0  0  0  0  0  0  0  0  0  0
    1.5973   -1.2721   -0.1672 N   0  0  0  0  0  0  0  0  0  0  0  0
    1.0574   -0.4999   -1.2512 C   0  0  0  0  0  0  0  0  0  0  0  0
   -0.4432   -0.3966   -1.2535 C   0  0  0  0  0  0  0  0  0  0  0  0
   -1.0871   -1.3254   -0.3257 N   0  0  0  0  0  0  0  0  0  0  0  0
   -2.2635   -1.0447    0.3741 C   0  0  0  0  0  0  0  0  0  0  0  0
   -2.7532   -1.8929    1.1547 O   0  0  0  0  0  0  0  0  0  0  0  0
   -3.0058    0.2222    0.2612 C   0  0  0  0  0  0  0  0  0  0  0  0
   -2.4574    1.4258    0.6114 C   0  0  0  0  0  0  0  0  0  0  0  0
   -3.1759    2.5866    0.5016 C   0  0  0  0  0  0  0  0  0  0  0  0
   -2.6338    3.8007    0.8517 F   0  0  0  0  0  0  0  0  0  0  0  0
   -4.4690    2.5575    0.0340 C   0  0  0  0  0  0  0  0  0  0  0  0
   -5.2013    3.7188   -0.0795 F   0  0  0  0  0  0  0  0  0  0  0  0
   -5.0698    1.3637   -0.3340 C   0  0  0  0  0  0  0  0  0  0  0  0
   -6.3436    1.3962   -0.7861 F   0  0  0  0  0  0  0  0  0  0  0  0
   -4.3127    0.2280   -0.2075 C   0  0  0  0  0  0  0  0  0  0  0  0
   -0.4097   -2.5874   -0.1768 C   0  0  2  0  0  0  0  0  0  0  0  0
   -1.1567   -3.6621    0.5068 C   0  0  0  0  0  0  0  0  0  0  0  0
    3.7686    1.1513    0.3316 N   0  0  0  0  0  0  0  0  0  0  0  0
    3.7982    3.7778    0.6068 H   0  0  0  0  0  0  0  0  0  0  0  0
    5.5506    3.7239    0.9200 H   0  0  0  0  0  0  0  0  0  0  0  0
    4.9294    3.8577   -0.8076 H   0  0  0  0  0  0  0  0  0  0  0  0
    1.4442   -0.9881   -2.1936 H   0  0  0  0  0  0  0  0  0  0  0  0
    1.5095    0.5117   -1.2360 H   0  0  0  0  0  0  0  0  0  0  0  0
   -0.7853   -0.7303   -2.2764 H   0  0  0  0  0  0  0  0  0  0  0  0
   -0.8049    0.6245   -1.1537 H   0  0  0  0  0  0  0  0  0  0  0  0
   -1.4381    1.4820    0.9856 H   0  0  0  0  0  0  0  0  0  0  0  0
   -4.7686   -0.7363   -0.4934 H   0  0  0  0  0  0  0  0  0  0  0  0
   -0.2018   -2.9463   -1.2293 H   0  0  0  0  0  0  0  0  0  0  0  0
   -2.1247   -3.8171   -0.0019 H   0  0  0  0  0  0  0  0  0  0  0  0
   -0.5827   -4.6180    0.3106 H   0  0  0  0  0  0  0  0  0  0  0  0
   -1.2087   -3.5813    1.5929 H   0  0  0  0  0  0  0  0  0  0  0  0
  1  2  1  0
  2  3  2  0
  3  4  1  0
  4  5  1  0
  5  6  1  0
  6  7  2  0
  7  8  1  0
  8  9  2  0
  9 10  1  0
 10 11  1  0
 11 12  1  0
 12 13  1  0
 13 14  1  0
 14 15  2  0
 14 16  1  0
 16 17  2  0
 17 18  1  0
 18 19  1  0
 18 20  2  0
 20 21  1  0
 20 22  1  0
 22 23  1  0
 22 24  2  0
 13 25  1  0
 25 26  1  0
  5 27  2  0
 27  2  1  0
 10  6  1  0
 24 16  1  0
 25  9  1  0
  1 28  1  0
  1 29  1  0
  1 30  1  0
 11 31  1  0
 11 32  1  0
 12 33  1  0
 12 34  1  0
 17 35  1  0
 24 36  1  0
 25 37  1  6
 26 38  1  0
 26 39  1  0
 26 40  1  0
M  END
$$$$
