
     RDKit          3D

 26 27  0  0  0  0  0  0  0  0999 V2000
   -2.7620   -1.2206    2.8268 O   0  0  0  0  0  0  0  0  0  0  0  0
   -1.8739   -0.8933    1.9655 C   0  0  0  0  0  0  0  0  0  0  0  0
   -0.6302   -1.3841    2.2192 O   0  0  0  0  0  0  0  0  0  0  0  0
   -2.2416   -0.0788    0.8605 C   0  0  0  0  0  0  0  0  0  0  0  0
   -3.5995    0.3241    0.7879 C   0  0  0  0  0  0  0  0  0  0  0  0
   -4.0270    1.1088   -0.2471 C   0  0  0  0  0  0  0  0  0  0  0  0
   -3.1474    1.4842   -1.1791 N   0  0  0  0  0  0  0  0  0  0  0  0
   -1.8552    1.1136   -1.1296 C   0  0  0  0  0  0  0  0  0  0  0  0
   -1.3639    0.3156   -0.0999 C   0  0  0  0  0  0  0  0  0  0  0  0
   -0.0199   -0.0249   -0.1174 N   0  0  0  0  0  0  0  0  0  0  0  0
    0.8863    0.4306   -1.1834 C   0  0  0  0  0  0  0  0  0  0  0  0
    2.2486   -0.0908   -0.9299 C   0  0  0  0  0  0  0  0  0  0  0  0
    3.2225    0.5784   -0.1792 C   0  0  0  0  0  0  0  0  0  0  0  0
    4.3466   -0.1996   -0.1600 C   0  0  0  0  0  0  0  0  0  0  0  0
    4.0218   -1.3286   -0.9053 C   0  0  0  0  0  0  0  0  0  0  0  0
    2.7940   -1.2140   -1.3280 O   0  0  0  0  0  0  0  0  0  0  0  0
   -0.4077   -2.2838    2.6186 H   0  0  0  0  0  0  0  0  0  0  0  0
   -4.3179    0.0285    1.5321 H   0  0  0  0  0  0  0  0  0  0  0  0
   -5.0749    1.4355   -0.3275 H   0  0  0  0  0  0  0  0  0  0  0  0
   -1.1391    1.4232   -1.8943 H   0  0  0  0  0  0  0  0  0  0  0  0
    0.4445   -0.6095    0.5950 H   0  0  0  0  0  0  0  0  0  0  0  0
    0.5134    0.0847   -2.1822 H   0  0  0  0  0  0  0  0  0  0  0  0
    0.9073    1.5406   -1.1091 H   0  0  0  0  0  0  0  0  0  0  0  0
    3.0667    1.5433    0.2864 H   0  0  0  0  0  0  0  0  0  0  0  0
    5.2689    0.0442    0.3378 H   0  0  0  0  0  0  0  0  0  0  0  0
    4.7397   -2.1273   -1.0580 H   0  0  0  0  0  0  0  0  0  0  0  0
  1  2  2  0
  2  3  1  0
  2  4  1  0
  4  5  2  0
  5  6  1  0
  6  7  2  0
  7  8  1  0
  8  9  2  0
  9 10  1  0
 10 11  1  0
 11 12  1  0
 12 13  2  0
 13 14  1  0
 14 15  2  0
 15 16  1  0
  9  4  1  0
 16 12  1  0
  3 17  1  0
  5 18  1  0
  6 19  1  0
  8 20  1  0
 10 21  1  0
 11 22  1  0
 11 23  1  0
 13 24  1  0
 14 25  1  0
 15 26  1  0
M  END
$$$$
