
     RDKit          3D

 48 52  0  0  0  0  0  0  0  0999 V2000
    3.1928   -1.8989   -1.5800 N   0  0  0  0  0  0  0  0  0  0  0  0
    4.1854   -1.7115   -0.9445 C   0  0  0  0  0  0  0  0  0  0  0  0
    5.3769   -1.4868   -0.1953 C   0  0  0  0  0  0  0  0  0  0  0  0
    6.5264   -2.2613   -0.3908 C   0  0  0  0  0  0  0  0  0  0  0  0
    7.6712   -2.0252    0.3565 C   0  0  0  0  0  0  0  0  0  0  0  0
    7.6398   -1.0138    1.2870 C   0  0  0  0  0  0  0  0  0  0  0  0
    6.5152   -0.2615    1.4744 C   0  0  0  0  0  0  0  0  0  0  0  0
    5.3588   -0.4594    0.7589 C   0  0  0  0  0  0  0  0  0  0  0  0
    4.1443    0.3214    0.9137 C   0  0  0  0  0  0  0  0  0  0  0  0
    4.2540    1.7082    0.8683 C   0  0  0  0  0  0  0  0  0  0  0  0
    3.1287    2.4816    1.0003 C   0  0  0  0  0  0  0  0  0  0  0  0
    1.8711    1.9426    1.1766 C   0  0  0  0  0  0  0  0  0  0  0  0
    0.6928    2.8855    1.2616 C   0  0  0  0  0  0  0  0  0  0  0  0
    0.1906    3.0934   -0.4916 S   0  0  0  0  0  0  0  0  0  0  0  0
   -0.5243    1.4872   -0.9681 C   0  0  0  0  0  0  0  0  0  0  0  0
    0.2170    0.4628   -1.3639 N   0  0  0  0  0  0  0  0  0  0  0  0
   -0.6840   -0.4109   -1.5934 N   0  0  0  0  0  0  0  0  0  0  0  0
   -1.8423   -0.4089   -1.5132 C   0  0  0  0  0  0  0  0  0  0  0  0
   -3.3326   -0.3932   -1.4056 C   0  0  0  0  0  0  0  0  0  0  0  0
   -3.8943   -1.5293   -2.0801 C   0  0  0  0  0  0  0  0  0  0  0  0
   -5.2259   -1.8037   -2.0594 C   0  0  0  0  0  0  0  0  0  0  0  0
   -6.0886   -0.9870   -1.3802 C   0  0  0  0  0  0  0  0  0  0  0  0
   -5.5882    0.1376   -0.7046 C   0  0  0  0  0  0  0  0  0  0  0  0
   -4.2230    0.3531   -0.7701 C   0  0  0  0  0  0  0  0  0  0  0  0
   -6.4919    0.9290   -0.0311 O   0  0  0  0  0  0  0  0  0  0  0  0
   -7.5144    0.2425    0.7055 C   0  0  0  0  0  0  0  0  0  0  0  0
   -8.2508   -0.6458   -0.2590 C   0  0  0  0  0  0  0  0  0  0  0  0
   -7.4519   -1.1465   -1.2826 O   0  0  0  0  0  0  0  0  0  0  0  0
   -1.7039    1.1337   -1.0023 O   0  0  0  0  0  0  0  0  0  0  0  0
    1.7520    0.5855    1.2251 C   0  0  0  0  0  0  0  0  0  0  0  0
    2.8858   -0.2348    1.0942 C   0  0  0  0  0  0  0  0  0  0  0  0
    6.5196   -3.0366   -1.1382 H   0  0  0  0  0  0  0  0  0  0  0  0
    8.5617   -2.6500    0.1792 H   0  0  0  0  0  0  0  0  0  0  0  0
    8.5272   -0.8174    1.8895 H   0  0  0  0  0  0  0  0  0  0  0  0
    6.5139    0.5527    2.2284 H   0  0  0  0  0  0  0  0  0  0  0  0
    5.2560    2.1498    0.7205 H   0  0  0  0  0  0  0  0  0  0  0  0
    3.2055    3.5617    0.9621 H   0  0  0  0  0  0  0  0  0  0  0  0
   -0.1337    2.4514    1.8757 H   0  0  0  0  0  0  0  0  0  0  0  0
    1.0086    3.8190    1.7273 H   0  0  0  0  0  0  0  0  0  0  0  0
   -3.2183   -2.1734   -2.6164 H   0  0  0  0  0  0  0  0  0  0  0  0
   -5.6718   -2.6570   -2.5726 H   0  0  0  0  0  0  0  0  0  0  0  0
   -3.8581    1.2367   -0.2189 H   0  0  0  0  0  0  0  0  0  0  0  0
   -7.0937   -0.3271    1.5504 H   0  0  0  0  0  0  0  0  0  0  0  0
   -8.2152    1.0079    1.1488 H   0  0  0  0  0  0  0  0  0  0  0  0
   -9.1385   -0.1380   -0.7006 H   0  0  0  0  0  0  0  0  0  0  0  0
   -8.5673   -1.5404    0.3582 H   0  0  0  0  0  0  0  0  0  0  0  0
    0.7604    0.1756    1.3688 H   0  0  0  0  0  0  0  0  0  0  0  0
    2.7572   -1.2744    1.1316 H   0  0  0  0  0  0  0  0  0  0  0  0
  1  2  3  0
  2  3  1  0
  3  4  2  0
  4  5  1  0
  5  6  2  0
  6  7  1  0
  7  8  2  0
  8  9  1  0
  9 10  2  0
 10 11  1  0
 11 12  2  0
 12 13  1  0
 13 14  1  0
 14 15  1  0
 15 16  2  0
 16 17  1  0
 17 18  2  0
 18 19  1  0
 19 20  2  0
 20 21  1  0
 21 22  2  0
 22 23  1  0
 23 24  2  0
 23 25  1  0
 25 26  1  0
 26 27  1  0
 27 28  1  0
 18 29  1  0
 12 30  1  0
 30 31  2  0
  8  3  1  0
 31  9  1  0
 29 15  1  0
 24 19  1  0
 28 22  1  0
  4 32  1  0
  5 33  1  0
  6 34  1  0
  7 35  1  0
 10 36  1  0
 11 37  1  0
 13 38  1  0
 13 39  1  0
 20 40  1  0
 21 41  1  0
 24 42  1  0
 26 43  1  0
 26 44  1  0
 27 45  1  0
 27 46  1  0
 30 47  1  0
 31 48  1  0
M  END
$$$$
