
     RDKit          3D

 44 47  0  0  0  0  0  0  0  0999 V2000
   -1.0916   -1.6683   -1.5534 C   0  0  0  0  0  0  0  0  0  0  0  0
   -1.4890   -0.7019   -0.5349 N   0  0  0  0  0  0  0  0  0  0  0  0
   -2.8650   -0.5520   -0.1746 C   0  0  0  0  0  0  0  0  0  0  0  0
   -3.7277   -0.1331   -1.3708 C   0  0  0  0  0  0  0  0  0  0  0  0
   -4.9609    0.5299   -0.7809 C   0  0  0  0  0  0  0  0  0  0  0  0
   -5.3094   -0.0572    0.5679 C   0  0  0  0  0  0  0  0  0  0  0  0
   -4.9360   -1.5111    0.6724 C   0  0  0  0  0  0  0  0  0  0  0  0
   -3.4921   -1.8003    0.3830 C   0  0  0  0  0  0  0  0  0  0  0  0
   -0.4613    0.0943    0.0956 C   0  0  0  0  0  0  0  0  0  0  0  0
    0.7977   -0.0911   -0.2818 N   0  0  0  0  0  0  0  0  0  0  0  0
    1.8317    0.5721    0.2159 C   0  0  0  0  0  0  0  0  0  0  0  0
    1.4523    1.4733    1.1670 C   0  0  0  0  0  0  0  0  0  0  0  0
    0.1711    1.7096    1.5983 C   0  0  0  0  0  0  0  0  0  0  0  0
   -0.8127    0.9851    1.0320 N   0  0  0  0  0  0  0  0  0  0  0  0
    3.1442    0.2606   -0.2946 C   0  0  0  0  0  0  0  0  0  0  0  0
    3.2816   -0.7204   -1.2873 C   0  0  0  0  0  0  0  0  0  0  0  0
    4.5738   -0.8538   -1.6183 N   0  0  0  0  0  0  0  0  0  0  0  0
    5.2960   -0.0014   -0.8852 C   0  0  0  0  0  0  0  0  0  0  0  0
    6.6379    0.2600   -0.8328 C   0  0  0  0  0  0  0  0  0  0  0  0
    7.1486    1.2074    0.0270 C   0  0  0  0  0  0  0  0  0  0  0  0
    6.2133    1.8463    0.8038 C   0  0  0  0  0  0  0  0  0  0  0  0
    4.8803    1.5322    0.6978 C   0  0  0  0  0  0  0  0  0  0  0  0
    4.4008    0.6219   -0.1300 N   0  0  0  0  0  0  0  0  0  0  0  0
   -1.8730   -1.8511   -2.2992 H   0  0  0  0  0  0  0  0  0  0  0  0
   -0.1854   -1.2430   -2.0651 H   0  0  0  0  0  0  0  0  0  0  0  0
   -0.7106   -2.6186   -1.1003 H   0  0  0  0  0  0  0  0  0  0  0  0
   -2.9505    0.2816    0.5445 H   0  0  0  0  0  0  0  0  0  0  0  0
   -3.1154    0.5433   -1.9740 H   0  0  0  0  0  0  0  0  0  0  0  0
   -3.9748   -1.0544   -1.9358 H   0  0  0  0  0  0  0  0  0  0  0  0
   -5.8092    0.5228   -1.4972 H   0  0  0  0  0  0  0  0  0  0  0  0
   -4.6933    1.6023   -0.6147 H   0  0  0  0  0  0  0  0  0  0  0  0
   -4.9315    0.5620    1.4094 H   0  0  0  0  0  0  0  0  0  0  0  0
   -6.4219   -0.0195    0.6492 H   0  0  0  0  0  0  0  0  0  0  0  0
   -5.1250   -1.8057    1.7372 H   0  0  0  0  0  0  0  0  0  0  0  0
   -5.6331   -2.0933    0.0391 H   0  0  0  0  0  0  0  0  0  0  0  0
   -3.4361   -2.6036   -0.3807 H   0  0  0  0  0  0  0  0  0  0  0  0
   -2.9509   -2.1961    1.2631 H   0  0  0  0  0  0  0  0  0  0  0  0
    2.1718    2.0725    1.6498 H   0  0  0  0  0  0  0  0  0  0  0  0
   -0.0562    2.4405    2.3572 H   0  0  0  0  0  0  0  0  0  0  0  0
    2.5965   -1.3827   -1.8380 H   0  0  0  0  0  0  0  0  0  0  0  0
    7.3320   -0.2888   -1.4831 H   0  0  0  0  0  0  0  0  0  0  0  0
    8.2054    1.4219    0.0768 H   0  0  0  0  0  0  0  0  0  0  0  0
    6.6080    2.6068    1.4963 H   0  0  0  0  0  0  0  0  0  0  0  0
    4.2696    2.1012    1.3553 H   0  0  0  0  0  0  0  0  0  0  0  0
  1  2  1  0
  2  3  1  0
  3  4  1  0
  4  5  1  0
  5  6  1  0
  6  7  1  0
  7  8  1  0
  2  9  1  0
  9 10  2  0
 10 11  1  0
 11 12  2  0
 12 13  1  0
 13 14  2  0
 11 15  1  0
 15 16  2  0
 16 17  1  0
 17 18  2  0
 18 19  1  0
 19 20  2  0
 20 21  1  0
 21 22  2  0
 22 23  1  0
  8  3  1  0
 14  9  1  0
 23 15  1  0
 23 18  1  0
  1 24  1  0
  1 25  1  0
  1 26  1  0
  3 27  1  0
  4 28  1  0
  4 29  1  0
  5 30  1  0
  5 31  1  0
  6 32  1  0
  6 33  1  0
  7 34  1  0
  7 35  1  0
  8 36  1  0
  8 37  1  0
 12 38  1  0
 13 39  1  0
 16 40  1  0
 19 41  1  0
 20 42  1  0
 21 43  1  0
 22 44  1  0
M  END
$$$$
