
     RDKit          3D

 39 39  0  0  0  0  0  0  0  0999 V2000
    5.3289   -0.8492    0.2318 O   0  0  0  0  0  0  0  0  0  0  0  0
    4.9716    0.2077    0.7982 C   0  0  0  0  0  0  0  0  0  0  0  0
    3.5832    0.3835    1.2254 C   0  0  0  0  0  0  0  0  0  0  0  0
    2.6881   -0.7644    0.8811 C   0  0  0  0  0  0  0  0  0  0  0  0
    2.5662   -1.0508   -0.5857 C   0  0  0  0  0  0  0  0  0  0  0  0
    2.0183    0.1321   -1.3246 C   0  0  0  0  0  0  0  0  0  0  0  0
    0.6668    0.5826   -0.8900 C   0  0  0  0  0  0  0  0  0  0  0  0
   -0.3701   -0.5001   -1.0614 C   0  0  0  0  0  0  0  0  0  0  0  0
   -1.6825    0.0152   -0.6153 C   0  0  0  0  0  0  0  0  0  0  0  0
   -1.7624    1.1884   -0.1867 O   0  0  0  0  0  0  0  0  0  0  0  0
   -2.8443   -0.8000   -0.6675 N   0  0  0  0  0  0  0  0  0  0  0  0
   -4.0976   -0.2849   -0.2334 C   0  0  0  0  0  0  0  0  0  0  0  0
   -4.4945   -0.4210    1.0952 C   0  0  0  0  0  0  0  0  0  0  0  0
   -5.6950    0.0603    1.5591 C   0  0  0  0  0  0  0  0  0  0  0  0
   -6.5319    0.7026    0.6608 C   0  0  0  0  0  0  0  0  0  0  0  0
   -6.1865    0.8625   -0.6609 C   0  0  0  0  0  0  0  0  0  0  0  0
   -4.9721    0.3625   -1.0776 C   0  0  0  0  0  0  0  0  0  0  0  0
    5.9739    1.2157    1.0017 N   0  0  0  0  0  0  0  0  0  0  0  0
    7.2407    1.0221    0.5970 O   0  0  0  0  0  0  0  0  0  0  0  0
    3.2257    1.3494    0.7697 H   0  0  0  0  0  0  0  0  0  0  0  0
    3.4991    0.5164    2.3408 H   0  0  0  0  0  0  0  0  0  0  0  0
    3.1680   -1.6767    1.3386 H   0  0  0  0  0  0  0  0  0  0  0  0
    1.6869   -0.6238    1.3341 H   0  0  0  0  0  0  0  0  0  0  0  0
    3.5035   -1.3446   -1.0721 H   0  0  0  0  0  0  0  0  0  0  0  0
    1.8556   -1.9027   -0.7794 H   0  0  0  0  0  0  0  0  0  0  0  0
    1.9672   -0.1428   -2.3980 H   0  0  0  0  0  0  0  0  0  0  0  0
    2.7463    0.9597   -1.2358 H   0  0  0  0  0  0  0  0  0  0  0  0
    0.6279    0.8950    0.1744 H   0  0  0  0  0  0  0  0  0  0  0  0
    0.3650    1.4227   -1.5422 H   0  0  0  0  0  0  0  0  0  0  0  0
   -0.1047   -1.4458   -0.5400 H   0  0  0  0  0  0  0  0  0  0  0  0
   -0.4488   -0.6960   -2.1634 H   0  0  0  0  0  0  0  0  0  0  0  0
   -2.8200   -1.7873   -1.0195 H   0  0  0  0  0  0  0  0  0  0  0  0
   -3.8215   -0.9310    1.7920 H   0  0  0  0  0  0  0  0  0  0  0  0
   -5.9628   -0.0673    2.5980 H   0  0  0  0  0  0  0  0  0  0  0  0
   -7.4839    1.0921    0.9971 H   0  0  0  0  0  0  0  0  0  0  0  0
   -6.8822    1.3715   -1.3086 H   0  0  0  0  0  0  0  0  0  0  0  0
   -4.6933    0.4830   -2.1103 H   0  0  0  0  0  0  0  0  0  0  0  0
    5.6566    2.0896    1.4755 H   0  0  0  0  0  0  0  0  0  0  0  0
    7.5148    0.0848    0.6018 H   0  0  0  0  0  0  0  0  0  0  0  0
  1  2  2  0
  2  3  1  0
  3  4  1  0
  4  5  1  0
  5  6  1  0
  6  7  1  0
  7  8  1  0
  8  9  1  0
  9 10  2  0
  9 11  1  0
 11 12  1  0
 12 13  2  0
 13 14  1  0
 14 15  2  0
 15 16  1  0
 16 17  2  0
  2 18  1  0
 18 19  1  0
 17 12  1  0
  3 20  1  0
  3 21  1  0
  4 22  1  0
  4 23  1  0
  5 24  1  0
  5 25  1  0
  6 26  1  0
  6 27  1  0
  7 28  1  0
  7 29  1  0
  8 30  1  0
  8 31  1  0
 11 32  1  0
 13 33  1  0
 14 34  1  0
 15 35  1  0
 16 36  1  0
 17 37  1  0
 18 38  1  0
 19 39  1  0
M  END
$$$$
