
     RDKit          3D

 44 46  0  0  0  0  0  0  0  0999 V2000
    6.7707    1.9686   -0.4632 C   0  0  0  0  0  0  0  0  0  0  0  0
    5.5276    1.1495   -0.2303 C   0  0  0  0  0  0  0  0  0  0  0  0
    5.5873   -0.1985    0.0643 C   0  0  0  0  0  0  0  0  0  0  0  0
    4.4095   -0.9092    0.2712 C   0  0  0  0  0  0  0  0  0  0  0  0
    3.1638   -0.3217    0.1944 C   0  0  0  0  0  0  0  0  0  0  0  0
    1.9325   -1.1220    0.4218 C   0  0  0  0  0  0  0  0  0  0  0  0
    1.5322   -1.1481    1.8678 C   0  0  0  0  0  0  0  0  0  0  0  0
    0.0261   -2.1376    2.0550 S   0  0  0  0  0  0  0  0  0  0  0  0
   -1.3577   -1.3312    1.2543 C   0  0  0  0  0  0  0  0  0  0  0  0
   -2.2130   -0.4273    1.8196 N   0  0  0  0  0  0  0  0  0  0  0  0
   -3.1111   -0.0614    0.8903 C   0  0  0  0  0  0  0  0  0  0  0  0
   -2.7966   -0.7547   -0.2582 C   0  0  0  0  0  0  0  0  0  0  0  0
   -3.5942   -0.5366   -1.3623 C   0  0  0  0  0  0  0  0  0  0  0  0
   -3.2962   -1.1753   -2.4027 O   0  0  0  0  0  0  0  0  0  0  0  0
   -4.6193    0.3179   -1.2826 N   0  0  0  0  0  0  0  0  0  0  0  0
   -5.4481    0.5381   -2.4520 C   0  0  0  0  0  0  0  0  0  0  0  0
   -4.8947    0.9844   -0.1219 C   0  0  0  0  0  0  0  0  0  0  0  0
   -5.8666    1.7767   -0.0929 O   0  0  0  0  0  0  0  0  0  0  0  0
   -4.1497    0.8072    0.9787 N   0  0  0  0  0  0  0  0  0  0  0  0
   -4.4330    1.5014    2.1952 C   0  0  0  0  0  0  0  0  0  0  0  0
   -1.7080   -1.5379   -0.0189 N   0  0  0  0  0  0  0  0  0  0  0  0
   -1.1204   -2.3934   -1.0146 C   0  0  0  0  0  0  0  0  0  0  0  0
    3.1149    1.0273   -0.1009 C   0  0  0  0  0  0  0  0  0  0  0  0
    4.2825    1.7334   -0.3060 C   0  0  0  0  0  0  0  0  0  0  0  0
    6.9904    2.0560   -1.5359 H   0  0  0  0  0  0  0  0  0  0  0  0
    7.6463    1.4917    0.0311 H   0  0  0  0  0  0  0  0  0  0  0  0
    6.6512    2.9677    0.0236 H   0  0  0  0  0  0  0  0  0  0  0  0
    6.5616   -0.6749    0.1281 H   0  0  0  0  0  0  0  0  0  0  0  0
    4.4730   -1.9725    0.5036 H   0  0  0  0  0  0  0  0  0  0  0  0
    1.1313   -0.7550   -0.2230 H   0  0  0  0  0  0  0  0  0  0  0  0
    2.1793   -2.1627    0.1217 H   0  0  0  0  0  0  0  0  0  0  0  0
    1.4125   -0.1275    2.2656 H   0  0  0  0  0  0  0  0  0  0  0  0
    2.3475   -1.6410    2.4503 H   0  0  0  0  0  0  0  0  0  0  0  0
   -6.4425    0.8995   -2.1288 H   0  0  0  0  0  0  0  0  0  0  0  0
   -4.9844    1.2158   -3.1812 H   0  0  0  0  0  0  0  0  0  0  0  0
   -5.5833   -0.4545   -2.9256 H   0  0  0  0  0  0  0  0  0  0  0  0
   -5.5235    1.6485    2.3300 H   0  0  0  0  0  0  0  0  0  0  0  0
   -3.9653    2.5128    2.2359 H   0  0  0  0  0  0  0  0  0  0  0  0
   -4.0862    0.9586    3.1044 H   0  0  0  0  0  0  0  0  0  0  0  0
   -1.9205   -2.9043   -1.6282 H   0  0  0  0  0  0  0  0  0  0  0  0
   -0.4868   -1.8657   -1.7440 H   0  0  0  0  0  0  0  0  0  0  0  0
   -0.5183   -3.2220   -0.5903 H   0  0  0  0  0  0  0  0  0  0  0  0
    2.1285    1.4851   -0.1587 H   0  0  0  0  0  0  0  0  0  0  0  0
    4.2507    2.7947   -0.5385 H   0  0  0  0  0  0  0  0  0  0  0  0
  1  2  1  0
  2  3  2  0
  3  4  1  0
  4  5  2  0
  5  6  1  0
  6  7  1  0
  7  8  1  0
  8  9  1  0
  9 10  2  0
 10 11  1  0
 11 12  2  0
 12 13  1  0
 13 14  2  0
 13 15  1  0
 15 16  1  0
 15 17  1  0
 17 18  2  0
 17 19  1  0
 19 20  1  0
 12 21  1  0
 21 22  1  0
  5 23  1  0
 23 24  2  0
 24  2  1  0
 21  9  1  0
 19 11  1  0
  1 25  1  0
  1 26  1  0
  1 27  1  0
  3 28  1  0
  4 29  1  0
  6 30  1  0
  6 31  1  0
  7 32  1  0
  7 33  1  0
 16 34  1  0
 16 35  1  0
 16 36  1  0
 20 37  1  0
 20 38  1  0
 20 39  1  0
 22 40  1  0
 22 41  1  0
 22 42  1  0
 23 43  1  0
 24 44  1  0
M  END
$$$$
