
     RDKit          3D

 56 59  0  0  0  0  0  0  0  0999 V2000
   -3.8287   -1.9318    1.2430 C   0  0  0  0  0  0  0  0  0  0  0  0
   -2.6250   -1.1500    0.8638 C   0  0  0  0  0  0  0  0  0  0  0  0
   -2.7673   -0.1065   -0.0806 N   0  0  0  0  0  0  0  0  0  0  0  0
   -1.5074    0.5186   -0.4104 C   0  0  0  0  0  0  0  0  0  0  0  0
   -0.5959    0.3624    0.5518 N   0  0  0  0  0  0  0  0  0  0  0  0
    0.6692    0.8644    0.4570 C   0  0  0  0  0  0  0  0  0  0  0  0
    1.0757    1.5686   -0.6537 C   0  0  0  0  0  0  0  0  0  0  0  0
    2.4590    2.0854   -0.6998 C   0  0  0  0  0  0  0  0  0  0  0  0
    3.4259    1.1270   -1.3038 C   0  0  0  0  0  0  0  0  0  0  0  0
    3.5806   -0.0916   -0.7014 O   0  0  0  0  0  0  0  0  0  0  0  0
    4.0348   -0.4650    0.5296 C   0  0  0  0  0  0  0  0  0  0  0  0
    4.4901    0.3702    1.5114 C   0  0  0  0  0  0  0  0  0  0  0  0
    4.9366   -0.1315    2.7408 C   0  0  0  0  0  0  0  0  0  0  0  0
    4.9278   -1.4834    2.9902 C   0  0  0  0  0  0  0  0  0  0  0  0
    5.4027   -1.9863    4.2892 C   0  0  0  0  0  0  0  0  0  0  0  0
    5.4125   -3.2137    4.5455 O   0  0  0  0  0  0  0  0  0  0  0  0
    5.8512   -1.0831    5.2592 O   0  0  0  0  0  0  0  0  0  0  0  0
    4.4768   -2.3395    2.0227 C   0  0  0  0  0  0  0  0  0  0  0  0
    4.0419   -1.8425    0.8236 C   0  0  0  0  0  0  0  0  0  0  0  0
    3.5644   -2.7959   -0.1919 C   0  0  0  0  0  0  0  0  0  0  0  0
    0.1467    1.7427   -1.6642 C   0  0  0  0  0  0  0  0  0  0  0  0
   -1.1416    1.2170   -1.5392 C   0  0  0  0  0  0  0  0  0  0  0  0
   -1.9750    1.4992   -2.7000 C   0  0  0  0  0  0  0  0  0  0  0  0
   -1.3777    1.8456   -3.7287 O   0  0  0  0  0  0  0  0  0  0  0  0
   -3.4088    1.4353   -2.8325 N   0  0  0  0  0  0  0  0  0  0  0  0
   -3.9739    1.9156   -4.0782 C   0  0  0  0  0  0  0  0  0  0  0  0
   -4.2873    0.9410   -1.8270 C   0  0  0  0  0  0  0  0  0  0  0  0
   -5.5887    1.2146   -2.1726 C   0  0  0  0  0  0  0  0  0  0  0  0
   -6.5843    0.8146   -1.3077 C   0  0  0  0  0  0  0  0  0  0  0  0
   -6.2684    0.1619   -0.1370 C   0  0  0  0  0  0  0  0  0  0  0  0
   -5.0018   -0.1098    0.2092 N   0  0  0  0  0  0  0  0  0  0  0  0
   -4.0121    0.2747   -0.6267 C   0  0  0  0  0  0  0  0  0  0  0  0
   -4.4756   -1.4555    2.0250 H   0  0  0  0  0  0  0  0  0  0  0  0
   -3.4848   -2.8804    1.7822 H   0  0  0  0  0  0  0  0  0  0  0  0
   -4.4039   -2.3467    0.3881 H   0  0  0  0  0  0  0  0  0  0  0  0
   -2.2430   -0.6664    1.8170 H   0  0  0  0  0  0  0  0  0  0  0  0
   -1.7777   -1.8386    0.5818 H   0  0  0  0  0  0  0  0  0  0  0  0
    1.3742    0.7066    1.2771 H   0  0  0  0  0  0  0  0  0  0  0  0
    2.7401    2.4088    0.2933 H   0  0  0  0  0  0  0  0  0  0  0  0
    2.4247    2.9856   -1.3588 H   0  0  0  0  0  0  0  0  0  0  0  0
    3.2804    1.0510   -2.4212 H   0  0  0  0  0  0  0  0  0  0  0  0
    4.4374    1.6497   -1.2436 H   0  0  0  0  0  0  0  0  0  0  0  0
    4.5225    1.4275    1.3481 H   0  0  0  0  0  0  0  0  0  0  0  0
    5.2960    0.5502    3.5049 H   0  0  0  0  0  0  0  0  0  0  0  0
    6.1856   -1.4294    6.1505 H   0  0  0  0  0  0  0  0  0  0  0  0
    4.4818   -3.4098    2.2510 H   0  0  0  0  0  0  0  0  0  0  0  0
    2.8609   -2.2692   -0.8852 H   0  0  0  0  0  0  0  0  0  0  0  0
    4.4414   -3.2111   -0.7072 H   0  0  0  0  0  0  0  0  0  0  0  0
    3.0731   -3.6485    0.3245 H   0  0  0  0  0  0  0  0  0  0  0  0
    0.4151    2.2855   -2.5519 H   0  0  0  0  0  0  0  0  0  0  0  0
   -3.0971    2.1274   -4.7618 H   0  0  0  0  0  0  0  0  0  0  0  0
   -4.4421    2.9272   -3.9436 H   0  0  0  0  0  0  0  0  0  0  0  0
   -4.5907    1.1967   -4.6143 H   0  0  0  0  0  0  0  0  0  0  0  0
   -5.8202    1.7198   -3.0815 H   0  0  0  0  0  0  0  0  0  0  0  0
   -7.6388    1.0183   -1.5575 H   0  0  0  0  0  0  0  0  0  0  0  0
   -7.1116   -0.1271    0.5044 H   0  0  0  0  0  0  0  0  0  0  0  0
  1  2  1  0
  2  3  1  0
  3  4  1  0
  4  5  2  0
  5  6  1  0
  6  7  2  0
  7  8  1  0
  8  9  1  0
  9 10  1  0
 10 11  1  0
 11 12  2  0
 12 13  1  0
 13 14  2  0
 14 15  1  0
 15 16  2  0
 15 17  1  0
 14 18  1  0
 18 19  2  0
 19 20  1  0
  7 21  1  0
 21 22  2  0
 22 23  1  0
 23 24  2  0
 23 25  1  0
 25 26  1  0
 25 27  1  0
 27 28  2  0
 28 29  1  0
 29 30  2  0
 30 31  1  0
 31 32  2  0
 32  3  1  0
 22  4  1  0
 32 27  1  0
 19 11  1  0
  1 33  1  0
  1 34  1  0
  1 35  1  0
  2 36  1  0
  2 37  1  0
  6 38  1  0
  8 39  1  0
  8 40  1  0
  9 41  1  0
  9 42  1  0
 12 43  1  0
 13 44  1  0
 17 45  1  0
 18 46  1  0
 20 47  1  0
 20 48  1  0
 20 49  1  0
 21 50  1  0
 26 51  1  0
 26 52  1  0
 26 53  1  0
 28 54  1  0
 29 55  1  0
 30 56  1  0
M  END
$$$$
