
     RDKit          3D

 41 43  0  0  0  0  0  0  0  0999 V2000
   -2.9376   -1.3062    1.4599 C   0  0  0  0  0  0  0  0  0  0  0  0
   -2.8732    0.1722    1.1493 C   0  0  0  0  0  0  0  0  0  0  0  0
   -2.6440    1.0053    2.3712 C   0  0  0  0  0  0  0  0  0  0  0  0
   -4.1210    0.6304    0.4654 C   0  0  0  0  0  0  0  0  0  0  0  0
   -1.7134    0.3524    0.2633 N   0  0  0  0  0  0  0  0  0  0  0  0
   -0.6328    1.0961    0.4169 N   0  0  0  0  0  0  0  0  0  0  0  0
    0.2056    0.9639   -0.6493 C   0  0  0  0  0  0  0  0  0  0  0  0
    1.5087    1.6349   -0.7123 C   0  0  0  0  0  0  0  0  0  0  0  0
    2.6165    0.7814   -0.2348 C   0  0  0  0  0  0  0  0  0  0  0  0
    2.7668    0.7888    1.1648 C   0  0  0  0  0  0  0  0  0  0  0  0
    3.7219    0.0753    1.8522 C   0  0  0  0  0  0  0  0  0  0  0  0
    3.7938    0.1432    3.2285 O   0  0  0  0  0  0  0  0  0  0  0  0
    4.6011   -0.7063    1.1307 C   0  0  0  0  0  0  0  0  0  0  0  0
    4.5069   -0.7571   -0.2509 C   0  0  0  0  0  0  0  0  0  0  0  0
    3.5233   -0.0129   -0.8521 C   0  0  0  0  0  0  0  0  0  0  0  0
   -0.4622    0.0904   -1.4408 C   0  0  0  0  0  0  0  0  0  0  0  0
   -1.6641   -0.3263   -0.9238 C   0  0  0  0  0  0  0  0  0  0  0  0
   -2.4494   -1.1832   -1.5813 N   0  0  0  0  0  0  0  0  0  0  0  0
   -2.1014   -1.6735   -2.7748 C   0  0  0  0  0  0  0  0  0  0  0  0
   -0.9133   -1.2811   -3.3221 N   0  0  0  0  0  0  0  0  0  0  0  0
   -0.1209   -0.4220   -2.6670 C   0  0  0  0  0  0  0  0  0  0  0  0
    1.0476   -0.0733   -3.3303 N   0  0  0  0  0  0  0  0  0  0  0  0
   -1.9888   -1.8406    1.1672 H   0  0  0  0  0  0  0  0  0  0  0  0
   -3.1282   -1.4767    2.5270 H   0  0  0  0  0  0  0  0  0  0  0  0
   -3.7261   -1.8007    0.8633 H   0  0  0  0  0  0  0  0  0  0  0  0
   -1.7061    0.6620    2.8737 H   0  0  0  0  0  0  0  0  0  0  0  0
   -2.4387    2.0404    2.0229 H   0  0  0  0  0  0  0  0  0  0  0  0
   -3.5151    1.0430    3.0474 H   0  0  0  0  0  0  0  0  0  0  0  0
   -4.9539    0.6760    1.1882 H   0  0  0  0  0  0  0  0  0  0  0  0
   -3.9385    1.6250    0.0180 H   0  0  0  0  0  0  0  0  0  0  0  0
   -4.3961   -0.0918   -0.3295 H   0  0  0  0  0  0  0  0  0  0  0  0
    1.4812    2.5453   -0.0842 H   0  0  0  0  0  0  0  0  0  0  0  0
    1.6956    1.9167   -1.7742 H   0  0  0  0  0  0  0  0  0  0  0  0
    2.1101    1.3837    1.7972 H   0  0  0  0  0  0  0  0  0  0  0  0
    4.4828   -0.3307    3.7910 H   0  0  0  0  0  0  0  0  0  0  0  0
    5.3548   -1.2707    1.6607 H   0  0  0  0  0  0  0  0  0  0  0  0
    5.1533   -1.3393   -0.8546 H   0  0  0  0  0  0  0  0  0  0  0  0
    3.4373   -0.0316   -1.9081 H   0  0  0  0  0  0  0  0  0  0  0  0
   -2.8445   -2.3505   -3.1700 H   0  0  0  0  0  0  0  0  0  0  0  0
    1.9910   -0.0486   -3.7471 H   0  0  0  0  0  0  0  0  0  0  0  0
    1.2711    0.8275   -3.8514 H   0  0  0  0  0  0  0  0  0  0  0  0
  1  2  1  0
  2  3  1  0
  2  4  1  0
  2  5  1  0
  5  6  1  0
  6  7  2  0
  7  8  1  0
  8  9  1  0
  9 10  2  0
 10 11  1  0
 11 12  1  0
 11 13  2  0
 13 14  1  0
 14 15  2  0
  7 16  1  0
 16 17  2  0
 17 18  1  0
 18 19  2  0
 19 20  1  0
 20 21  2  0
 21 22  1  0
 17  5  1  0
 15  9  1  0
 21 16  1  0
  1 23  1  0
  1 24  1  0
  1 25  1  0
  3 26  1  0
  3 27  1  0
  3 28  1  0
  4 29  1  0
  4 30  1  0
  4 31  1  0
  8 32  1  0
  8 33  1  0
 10 34  1  0
 12 35  1  0
 13 36  1  0
 14 37  1  0
 15 38  1  0
 19 39  1  0
 22 40  1  0
 22 41  1  0
M  END
$$$$
