
     RDKit          3D

 46 50  0  0  0  0  0  0  0  0999 V2000
   -2.6197   -3.9329    0.0918 O   0  0  0  0  0  0  0  0  0  0  0  0
   -1.5257   -3.3366    0.1510 C   0  0  0  0  0  0  0  0  0  0  0  0
   -0.3183   -3.8758    0.3706 N   0  0  0  0  0  0  0  0  0  0  0  0
    0.5509   -2.8649    0.3488 N   0  0  0  0  0  0  0  0  0  0  0  0
   -0.1083   -1.7132    0.1187 C   0  0  0  0  0  0  0  0  0  0  0  0
    0.5307   -0.4093    0.0343 C   0  0  0  0  0  0  0  0  0  0  0  0
   -0.0413    0.7515    0.5115 C   0  0  0  0  0  0  0  0  0  0  0  0
    0.6589    1.9326    0.3967 C   0  0  0  0  0  0  0  0  0  0  0  0
    1.8738    2.0162   -0.1569 N   0  0  0  0  0  0  0  0  0  0  0  0
    2.4823    0.8960   -0.6437 C   0  0  0  0  0  0  0  0  0  0  0  0
    3.7821    0.9441   -1.2125 N   0  0  0  0  0  0  0  0  0  0  0  0
    4.9175    0.5505   -0.4553 C   0  0  0  0  0  0  0  0  0  0  0  0
    6.2090    0.6426   -0.8997 C   0  0  0  0  0  0  0  0  0  0  0  0
    7.2696    0.2230   -0.1011 C   0  0  0  0  0  0  0  0  0  0  0  0
    7.0689   -0.2912    1.1442 C   0  0  0  0  0  0  0  0  0  0  0  0
    5.7576   -0.3877    1.6038 C   0  0  0  0  0  0  0  0  0  0  0  0
    4.7046    0.0216    0.8280 C   0  0  0  0  0  0  0  0  0  0  0  0
    1.7880   -0.2802   -0.5317 C   0  0  0  0  0  0  0  0  0  0  0  0
   -1.4040   -1.9899   -0.0072 N   0  0  0  0  0  0  0  0  0  0  0  0
   -2.4255   -1.0421   -0.2608 C   0  0  0  0  0  0  0  0  0  0  0  0
   -2.3882   -0.2933   -1.4173 C   0  0  0  0  0  0  0  0  0  0  0  0
   -3.3888    0.6420   -1.7042 C   0  0  0  0  0  0  0  0  0  0  0  0
   -4.4280    0.8168   -0.8159 C   0  0  0  0  0  0  0  0  0  0  0  0
   -5.4400    1.7154   -1.0439 C   0  0  0  0  0  0  0  0  0  0  0  0
   -6.4808    1.9053   -0.1844 C   0  0  0  0  0  0  0  0  0  0  0  0
   -6.5492    1.1690    0.9879 C   0  0  0  0  0  0  0  0  0  0  0  0
   -5.5463    0.2669    1.2317 C   0  0  0  0  0  0  0  0  0  0  0  0
   -4.5002    0.0787    0.3633 C   0  0  0  0  0  0  0  0  0  0  0  0
   -3.4842   -0.8285    0.5923 C   0  0  0  0  0  0  0  0  0  0  0  0
   -0.0517   -4.8699    0.5330 H   0  0  0  0  0  0  0  0  0  0  0  0
   -1.0238    0.7023    0.9629 H   0  0  0  0  0  0  0  0  0  0  0  0
    0.2200    2.8653    0.7690 H   0  0  0  0  0  0  0  0  0  0  0  0
    3.9043    1.2647   -2.1776 H   0  0  0  0  0  0  0  0  0  0  0  0
    6.4077    1.0465   -1.8827 H   0  0  0  0  0  0  0  0  0  0  0  0
    8.3017    0.2954   -0.4503 H   0  0  0  0  0  0  0  0  0  0  0  0
    7.8645   -0.6180    1.7679 H   0  0  0  0  0  0  0  0  0  0  0  0
    5.6184   -0.8007    2.5970 H   0  0  0  0  0  0  0  0  0  0  0  0
    3.6985   -0.0635    1.2070 H   0  0  0  0  0  0  0  0  0  0  0  0
    2.2531   -1.1778   -0.9110 H   0  0  0  0  0  0  0  0  0  0  0  0
   -1.5908   -0.3900   -2.1538 H   0  0  0  0  0  0  0  0  0  0  0  0
   -3.3703    1.2321   -2.6039 H   0  0  0  0  0  0  0  0  0  0  0  0
   -5.4000    2.2948   -1.9545 H   0  0  0  0  0  0  0  0  0  0  0  0
   -7.2917    2.6175   -0.3585 H   0  0  0  0  0  0  0  0  0  0  0  0
   -7.3877    1.3141    1.6903 H   0  0  0  0  0  0  0  0  0  0  0  0
   -5.5810   -0.3135    2.1335 H   0  0  0  0  0  0  0  0  0  0  0  0
   -3.5166   -1.4054    1.4918 H   0  0  0  0  0  0  0  0  0  0  0  0
  1  2  2  0
  2  3  1  0
  3  4  1  0
  4  5  2  0
  5  6  1  0
  6  7  2  0
  7  8  1  0
  8  9  2  0
  9 10  1  0
 10 11  1  0
 11 12  1  0
 12 13  2  0
 13 14  1  0
 14 15  2  0
 15 16  1  0
 16 17  2  0
 10 18  2  0
  5 19  1  0
 19 20  1  0
 20 21  2  0
 21 22  1  0
 22 23  2  0
 23 24  1  0
 24 25  2  0
 25 26  1  0
 26 27  2  0
 27 28  1  0
 28 29  2  0
 19  2  1  0
 29 20  1  0
 18  6  1  0
 28 23  1  0
 17 12  1  0
  3 30  1  0
  7 31  1  0
  8 32  1  0
 11 33  1  0
 13 34  1  0
 14 35  1  0
 15 36  1  0
 16 37  1  0
 17 38  1  0
 18 39  1  0
 21 40  1  0
 22 41  1  0
 24 42  1  0
 25 43  1  0
 26 44  1  0
 27 45  1  0
 29 46  1  0
M  END
$$$$
