
     RDKit          3D

 92 96  0  0  0  0  0  0  0  0999 V2000
   -3.8729    3.2071    1.8335 C   0  0  0  0  0  0  0  0  0  0  0  0
   -3.7306    3.4386    0.3223 C   0  0  0  0  0  0  0  0  0  0  0  0
   -2.3785    4.0466    0.0670 C   0  0  0  0  0  0  0  0  0  0  0  0
   -4.8138    4.4191   -0.0540 C   0  0  0  0  0  0  0  0  0  0  0  0
   -3.9351    2.1960   -0.3976 N   0  0  0  0  0  0  0  0  0  0  0  0
   -3.1224    1.0514   -0.2454 C   0  0  0  0  0  0  0  0  0  0  0  0
   -2.1737    1.1642    0.5707 O   0  0  0  0  0  0  0  0  0  0  0  0
   -3.2983   -0.2393   -0.9546 C   0  0  2  0  0  0  0  0  0  0  0  0
   -4.6709   -0.8239   -0.6339 C   0  0  0  0  0  0  0  0  0  0  0  0
   -4.6296   -1.4703    0.6195 N   0  0  0  0  0  0  0  0  0  0  0  0
   -5.8120   -1.6266    1.3490 C   0  0  0  0  0  0  0  0  0  0  0  0
   -6.9290   -2.3269    0.6411 C   0  0  0  0  0  0  0  0  0  0  0  0
   -7.0889   -3.6860    0.6669 C   0  0  0  0  0  0  0  0  0  0  0  0
   -8.1395   -4.2525   -0.0035 C   0  0  0  0  0  0  0  0  0  0  0  0
   -9.0210   -3.4418   -0.6960 C   0  0  0  0  0  0  0  0  0  0  0  0
   -8.8382   -2.1152   -0.7024 N   0  0  0  0  0  0  0  0  0  0  0  0
   -7.8145   -1.5305   -0.0521 C   0  0  0  0  0  0  0  0  0  0  0  0
   -3.7153   -2.5368    0.7242 C   0  0  0  0  0  0  0  0  0  0  0  0
   -2.7791   -2.4787   -0.5037 C   0  0  0  0  0  0  0  0  0  0  0  0
   -2.2815   -1.2025   -0.6443 N   0  0  0  0  0  0  0  0  0  0  0  0
   -0.9849   -0.8641   -0.9760 C   0  0  0  0  0  0  0  0  0  0  0  0
    0.1302   -1.1083    0.0086 C   0  0  1  0  0  0  0  0  0  0  0  0
    0.3508   -2.4010    0.3092 O   0  0  0  0  0  0  0  0  0  0  0  0
    1.3375   -0.2991   -0.3618 C   0  0  0  0  0  0  0  0  0  0  0  0
    2.4413   -0.4574    0.6119 C   0  0  1  0  0  0  0  0  0  0  0  0
    3.1017   -1.7564    0.7879 C   0  0  0  0  0  0  0  0  0  0  0  0
    3.8241   -2.3401   -0.3335 C   0  0  0  0  0  0  0  0  0  0  0  0
    3.2591   -3.0373   -1.3536 C   0  0  0  0  0  0  0  0  0  0  0  0
    4.0582   -3.5688   -2.3805 C   0  0  0  0  0  0  0  0  0  0  0  0
    5.4254   -3.4056   -2.3926 C   0  0  0  0  0  0  0  0  0  0  0  0
    5.9946   -2.6992   -1.3563 C   0  0  0  0  0  0  0  0  0  0  0  0
    5.2089   -2.1720   -0.3379 C   0  0  0  0  0  0  0  0  0  0  0  0
    3.3544    0.7479    0.5684 C   0  0  0  0  0  0  0  0  0  0  0  0
    3.3533    1.5667    1.5372 O   0  0  0  0  0  0  0  0  0  0  0  0
    4.2212    1.0213   -0.5132 N   0  0  0  0  0  0  0  0  0  0  0  0
    5.0740    2.1461   -0.6522 C   0  0  1  0  0  0  0  0  0  0  0  0
    5.7321    2.6230    0.6117 C   0  0  0  0  0  0  0  0  0  0  0  0
    5.3611    3.4571    1.6313 C   0  0  0  0  0  0  0  0  0  0  0  0
    6.2067    3.7253    2.7137 C   0  0  0  0  0  0  0  0  0  0  0  0
    7.4624    3.1314    2.7601 C   0  0  0  0  0  0  0  0  0  0  0  0
    7.8362    2.2956    1.7344 C   0  0  0  0  0  0  0  0  0  0  0  0
    7.0080    2.0288    0.6668 C   0  0  0  0  0  0  0  0  0  0  0  0
    7.2371    1.2175   -0.5539 C   0  0  0  0  0  0  0  0  0  0  0  0
    6.2592    1.9342   -1.5240 C   0  0  1  0  0  0  0  0  0  0  0  0
    6.1075    1.1211   -2.6086 O   0  0  0  0  0  0  0  0  0  0  0  0
   -4.0974    4.1443    2.3593 H   0  0  0  0  0  0  0  0  0  0  0  0
   -4.7006    2.5026    1.9692 H   0  0  0  0  0  0  0  0  0  0  0  0
   -2.9294    2.7827    2.2441 H   0  0  0  0  0  0  0  0  0  0  0  0
   -2.0195    3.9117   -0.9667 H   0  0  0  0  0  0  0  0  0  0  0  0
   -1.6599    3.6864    0.8224 H   0  0  0  0  0  0  0  0  0  0  0  0
   -2.4736    5.1495    0.2438 H   0  0  0  0  0  0  0  0  0  0  0  0
   -4.9606    5.1533    0.7776 H   0  0  0  0  0  0  0  0  0  0  0  0
   -5.7742    3.8255   -0.0748 H   0  0  0  0  0  0  0  0  0  0  0  0
   -4.6375    4.9053   -1.0260 H   0  0  0  0  0  0  0  0  0  0  0  0
   -4.7293    2.1191   -1.0658 H   0  0  0  0  0  0  0  0  0  0  0  0
   -3.2881   -0.0782   -2.0554 H   0  0  0  0  0  0  0  0  0  0  0  0
   -5.4327    0.0044   -0.5707 H   0  0  0  0  0  0  0  0  0  0  0  0
   -5.0371   -1.5119   -1.4168 H   0  0  0  0  0  0  0  0  0  0  0  0
   -6.1562   -0.6471    1.7458 H   0  0  0  0  0  0  0  0  0  0  0  0
   -5.5971   -2.2610    2.2580 H   0  0  0  0  0  0  0  0  0  0  0  0
   -6.4079   -4.3151    1.2004 H   0  0  0  0  0  0  0  0  0  0  0  0
   -8.3033   -5.3319   -0.0064 H   0  0  0  0  0  0  0  0  0  0  0  0
   -9.8738   -3.8667   -1.2395 H   0  0  0  0  0  0  0  0  0  0  0  0
   -7.7105   -0.4249   -0.0880 H   0  0  0  0  0  0  0  0  0  0  0  0
   -3.0532   -2.3307    1.6090 H   0  0  0  0  0  0  0  0  0  0  0  0
   -4.1215   -3.5492    0.7089 H   0  0  0  0  0  0  0  0  0  0  0  0
   -3.4515   -2.7290   -1.3836 H   0  0  0  0  0  0  0  0  0  0  0  0
   -2.1029   -3.3308   -0.3452 H   0  0  0  0  0  0  0  0  0  0  0  0
   -0.9478    0.2491   -1.1896 H   0  0  0  0  0  0  0  0  0  0  0  0
   -0.6641   -1.2958   -1.9796 H   0  0  0  0  0  0  0  0  0  0  0  0
   -0.2274   -0.5467    0.9695 H   0  0  0  0  0  0  0  0  0  0  0  0
    0.1715   -2.9945   -0.4234 H   0  0  0  0  0  0  0  0  0  0  0  0
    1.0439    0.7975   -0.3399 H   0  0  0  0  0  0  0  0  0  0  0  0
    1.6486   -0.4597   -1.4209 H   0  0  0  0  0  0  0  0  0  0  0  0
    1.9125   -0.2983    1.6456 H   0  0  0  0  0  0  0  0  0  0  0  0
    2.3944   -2.5086    1.1716 H   0  0  0  0  0  0  0  0  0  0  0  0
    3.8028   -1.6178    1.6923 H   0  0  0  0  0  0  0  0  0  0  0  0
    2.2145   -3.2336   -1.4615 H   0  0  0  0  0  0  0  0  0  0  0  0
    3.5814   -4.1173   -3.1734 H   0  0  0  0  0  0  0  0  0  0  0  0
    6.0668   -3.8009   -3.1830 H   0  0  0  0  0  0  0  0  0  0  0  0
    7.0596   -2.5621   -1.3512 H   0  0  0  0  0  0  0  0  0  0  0  0
    5.6688   -1.6387    0.4617 H   0  0  0  0  0  0  0  0  0  0  0  0
    4.1743    0.2717   -1.2979 H   0  0  0  0  0  0  0  0  0  0  0  0
    4.4472    3.0070   -1.0224 H   0  0  0  0  0  0  0  0  0  0  0  0
    4.3856    3.9527    1.5967 H   0  0  0  0  0  0  0  0  0  0  0  0
    5.8297    4.3987    3.4718 H   0  0  0  0  0  0  0  0  0  0  0  0
    8.1049    3.3537    3.6092 H   0  0  0  0  0  0  0  0  0  0  0  0
    8.8186    1.8349    1.7745 H   0  0  0  0  0  0  0  0  0  0  0  0
    8.2458    1.2066   -0.9317 H   0  0  0  0  0  0  0  0  0  0  0  0
    6.8814    0.2026   -0.3234 H   0  0  0  0  0  0  0  0  0  0  0  0
    6.7528    2.8687   -1.8314 H   0  0  0  0  0  0  0  0  0  0  0  0
    6.8372    0.4237   -2.6667 H   0  0  0  0  0  0  0  0  0  0  0  0
  1  2  1  0
  2  3  1  0
  2  4  1  0
  2  5  1  0
  5  6  1  0
  6  7  2  0
  6  8  1  0
  8  9  1  0
  9 10  1  0
 10 11  1  0
 11 12  1  0
 12 13  2  0
 13 14  1  0
 14 15  2  0
 15 16  1  0
 16 17  2  0
 10 18  1  0
 18 19  1  0
 19 20  1  0
 20 21  1  0
 21 22  1  0
 22 23  1  0
 22 24  1  0
 24 25  1  0
 25 26  1  0
 26 27  1  0
 27 28  2  0
 28 29  1  0
 29 30  2  0
 30 31  1  0
 31 32  2  0
 25 33  1  0
 33 34  2  0
 33 35  1  0
 35 36  1  0
 36 37  1  0
 37 38  2  0
 38 39  1  0
 39 40  2  0
 40 41  1  0
 41 42  2  0
 42 43  1  0
 43 44  1  0
 44 45  1  0
 20  8  1  0
 32 27  1  0
 44 36  1  0
 17 12  1  0
 42 37  1  0
  1 46  1  0
  1 47  1  0
  1 48  1  0
  3 49  1  0
  3 50  1  0
  3 51  1  0
  4 52  1  0
  4 53  1  0
  4 54  1  0
  5 55  1  0
  8 56  1  6
  9 57  1  0
  9 58  1  0
 11 59  1  0
 11 60  1  0
 13 61  1  0
 14 62  1  0
 15 63  1  0
 17 64  1  0
 18 65  1  0
 18 66  1  0
 19 67  1  0
 19 68  1  0
 21 69  1  0
 21 70  1  0
 22 71  1  1
 23 72  1  0
 24 73  1  0
 24 74  1  0
 25 75  1  1
 26 76  1  0
 26 77  1  0
 28 78  1  0
 29 79  1  0
 30 80  1  0
 31 81  1  0
 32 82  1  0
 35 83  1  0
 36 84  1  6
 38 85  1  0
 39 86  1  0
 40 87  1  0
 41 88  1  0
 43 89  1  0
 43 90  1  0
 44 91  1  6
 45 92  1  0
M  END
$$$$
