
     RDKit          3D

 37 39  0  0  0  0  0  0  0  0999 V2000
    4.4300   -2.2760   -1.0619 C   0  0  0  0  0  0  0  0  0  0  0  0
    3.2629   -1.5073   -0.5308 C   0  0  0  0  0  0  0  0  0  0  0  0
    2.0219   -1.9628   -0.2877 N   0  0  0  0  0  0  0  0  0  0  0  0
    1.2504   -0.9961    0.1792 N   0  0  0  0  0  0  0  0  0  0  0  0
   -0.1424   -1.0875    0.5582 C   0  0  0  0  0  0  0  0  0  0  0  0
   -0.5645   -2.1113    1.3764 C   0  0  0  0  0  0  0  0  0  0  0  0
   -1.8327   -2.2048    1.7287 N   0  0  0  0  0  0  0  0  0  0  0  0
   -2.7241   -1.3021    1.2925 C   0  0  0  0  0  0  0  0  0  0  0  0
   -2.3665   -0.2641    0.4789 C   0  0  0  0  0  0  0  0  0  0  0  0
   -3.3845    0.7336    0.0042 C   0  0  0  0  0  0  0  0  0  0  0  0
   -4.7515    0.3996    0.5488 C   0  0  0  0  0  0  0  0  0  0  0  0
   -3.3385    0.7885   -1.4861 C   0  0  0  0  0  0  0  0  0  0  0  0
   -3.0485    2.0009    0.5245 O   0  0  0  0  0  0  0  0  0  0  0  0
   -1.0437   -0.1695    0.1134 C   0  0  0  0  0  0  0  0  0  0  0  0
    1.9792    0.1362    0.2549 C   0  0  0  0  0  0  0  0  0  0  0  0
    1.7469    1.4348    0.6501 C   0  0  0  0  0  0  0  0  0  0  0  0
    2.7061    2.4191    0.6218 C   0  0  0  0  0  0  0  0  0  0  0  0
    3.9606    2.0659    0.1705 C   0  0  0  0  0  0  0  0  0  0  0  0
    4.2609    0.7835   -0.2401 C   0  0  0  0  0  0  0  0  0  0  0  0
    5.4876    0.4545   -0.6773 F   0  0  0  0  0  0  0  0  0  0  0  0
    3.2547   -0.1654   -0.1894 C   0  0  0  0  0  0  0  0  0  0  0  0
    4.3906   -2.3834   -2.1612 H   0  0  0  0  0  0  0  0  0  0  0  0
    4.4144   -3.3312   -0.6603 H   0  0  0  0  0  0  0  0  0  0  0  0
    5.3733   -1.8391   -0.6906 H   0  0  0  0  0  0  0  0  0  0  0  0
    0.2127   -2.8181    1.7000 H   0  0  0  0  0  0  0  0  0  0  0  0
   -3.7658   -1.3699    1.5756 H   0  0  0  0  0  0  0  0  0  0  0  0
   -5.1113   -0.5989    0.2500 H   0  0  0  0  0  0  0  0  0  0  0  0
   -4.6826    0.5181    1.6622 H   0  0  0  0  0  0  0  0  0  0  0  0
   -5.4451    1.1786    0.1711 H   0  0  0  0  0  0  0  0  0  0  0  0
   -4.3684    0.6735   -1.8917 H   0  0  0  0  0  0  0  0  0  0  0  0
   -2.8498    1.7174   -1.8192 H   0  0  0  0  0  0  0  0  0  0  0  0
   -2.7635   -0.0796   -1.8899 H   0  0  0  0  0  0  0  0  0  0  0  0
   -3.8855    2.5316    0.4875 H   0  0  0  0  0  0  0  0  0  0  0  0
   -0.7350    0.6449   -0.5314 H   0  0  0  0  0  0  0  0  0  0  0  0
    0.7644    1.7178    1.0052 H   0  0  0  0  0  0  0  0  0  0  0  0
    2.5388    3.4422    0.9286 H   0  0  0  0  0  0  0  0  0  0  0  0
    4.7485    2.8264    0.1352 H   0  0  0  0  0  0  0  0  0  0  0  0
  1  2  1  0
  2  3  2  0
  3  4  1  0
  4  5  1  0
  5  6  2  0
  6  7  1  0
  7  8  2  0
  8  9  1  0
  9 10  1  0
 10 11  1  0
 10 12  1  0
 10 13  1  0
  9 14  2  0
  4 15  1  0
 15 16  2  0
 16 17  1  0
 17 18  2  0
 18 19  1  0
 19 20  1  0
 19 21  2  0
 21  2  1  0
 14  5  1  0
 21 15  1  0
  1 22  1  0
  1 23  1  0
  1 24  1  0
  6 25  1  0
  8 26  1  0
 11 27  1  0
 11 28  1  0
 11 29  1  0
 12 30  1  0
 12 31  1  0
 12 32  1  0
 13 33  1  0
 14 34  1  0
 16 35  1  0
 17 36  1  0
 18 37  1  0
M  END
$$$$
