
     RDKit          3D

 44 45  0  0  0  0  0  0  0  0999 V2000
    9.7484    1.1454    1.0272 C   0  0  0  0  0  0  0  0  0  0  0  0
    8.4369    0.9373    0.4869 O   0  0  0  0  0  0  0  0  0  0  0  0
    7.6181   -0.0770    0.9569 C   0  0  0  0  0  0  0  0  0  0  0  0
    8.0680   -0.8078    1.8746 O   0  0  0  0  0  0  0  0  0  0  0  0
    6.2764   -0.2977    0.4113 C   0  0  0  0  0  0  0  0  0  0  0  0
    5.7540    0.4819   -0.5912 C   0  0  0  0  0  0  0  0  0  0  0  0
    4.4940    0.2820   -1.1102 C   0  0  0  0  0  0  0  0  0  0  0  0
    3.7525   -0.7529   -0.5784 C   0  0  0  0  0  0  0  0  0  0  0  0
    2.3829   -0.9592   -1.1526 C   0  0  0  0  0  0  0  0  0  0  0  0
    1.5086   -0.1622   -0.3699 O   0  0  0  0  0  0  0  0  0  0  0  0
    0.1587   -0.0838   -0.5872 N   0  0  0  0  0  0  0  0  0  0  0  0
   -0.7211   -0.0580    0.3373 C   0  0  0  0  0  0  0  0  0  0  0  0
   -2.1472    0.0255    0.0778 C   0  0  0  0  0  0  0  0  0  0  0  0
   -2.6370    0.0825   -1.2076 C   0  0  0  0  0  0  0  0  0  0  0  0
   -3.9787    0.1619   -1.4862 C   0  0  0  0  0  0  0  0  0  0  0  0
   -4.9147    0.1883   -0.4563 C   0  0  0  0  0  0  0  0  0  0  0  0
   -6.3238    0.2731   -0.8085 C   0  0  0  0  0  0  0  0  0  0  0  0
   -7.2888    0.3044    0.0759 C   0  0  0  0  0  0  0  0  0  0  0  0
   -8.7110    0.3914   -0.3375 C   0  0  0  0  0  0  0  0  0  0  0  0
   -8.9680    0.4342   -1.5539 O   0  0  0  0  0  0  0  0  0  0  0  0
   -9.7044    0.4213    0.6732 N   0  0  0  0  0  0  0  0  0  0  0  0
  -11.0098    0.5006    0.3130 O   0  0  0  0  0  0  0  0  0  0  0  0
   -4.4483    0.1327    0.8212 C   0  0  0  0  0  0  0  0  0  0  0  0
   -3.0806    0.0523    1.0819 C   0  0  0  0  0  0  0  0  0  0  0  0
    4.2232   -1.5683    0.4280 C   0  0  0  0  0  0  0  0  0  0  0  0
    5.5065   -1.3177    0.9138 C   0  0  0  0  0  0  0  0  0  0  0  0
    9.7058    1.6135    2.0297 H   0  0  0  0  0  0  0  0  0  0  0  0
   10.3212    0.2018    1.0653 H   0  0  0  0  0  0  0  0  0  0  0  0
   10.2792    1.8552    0.3608 H   0  0  0  0  0  0  0  0  0  0  0  0
    6.3562    1.2799   -0.9844 H   0  0  0  0  0  0  0  0  0  0  0  0
    4.0926    0.9049   -1.9024 H   0  0  0  0  0  0  0  0  0  0  0  0
    2.3718   -0.6577   -2.2037 H   0  0  0  0  0  0  0  0  0  0  0  0
    2.1014   -2.0341   -1.1135 H   0  0  0  0  0  0  0  0  0  0  0  0
   -0.3756   -0.1010    1.3619 H   0  0  0  0  0  0  0  0  0  0  0  0
   -1.9030    0.0618   -2.0151 H   0  0  0  0  0  0  0  0  0  0  0  0
   -4.3318    0.2052   -2.5026 H   0  0  0  0  0  0  0  0  0  0  0  0
   -6.5875    0.3123   -1.8598 H   0  0  0  0  0  0  0  0  0  0  0  0
   -7.0578    0.2670    1.1234 H   0  0  0  0  0  0  0  0  0  0  0  0
   -9.4536    0.3835    1.6910 H   0  0  0  0  0  0  0  0  0  0  0  0
  -11.1003    0.1304   -0.6201 H   0  0  0  0  0  0  0  0  0  0  0  0
   -5.1584    0.1518    1.6393 H   0  0  0  0  0  0  0  0  0  0  0  0
   -2.7395    0.0096    2.1040 H   0  0  0  0  0  0  0  0  0  0  0  0
    3.5988   -2.3584    0.8016 H   0  0  0  0  0  0  0  0  0  0  0  0
    5.8855   -1.9560    1.7075 H   0  0  0  0  0  0  0  0  0  0  0  0
  1  2  1  0
  2  3  1  0
  3  4  2  0
  3  5  1  0
  5  6  2  0
  6  7  1  0
  7  8  2  0
  8  9  1  0
  9 10  1  0
 10 11  1  0
 11 12  2  0
 12 13  1  0
 13 14  2  0
 14 15  1  0
 15 16  2  0
 16 17  1  0
 17 18  2  0
 18 19  1  0
 19 20  2  0
 19 21  1  0
 21 22  1  0
 16 23  1  0
 23 24  2  0
  8 25  1  0
 25 26  2  0
 26  5  1  0
 24 13  1  0
  1 27  1  0
  1 28  1  0
  1 29  1  0
  6 30  1  0
  7 31  1  0
  9 32  1  0
  9 33  1  0
 12 34  1  0
 14 35  1  0
 15 36  1  0
 17 37  1  0
 18 38  1  0
 21 39  1  0
 22 40  1  0
 23 41  1  0
 24 42  1  0
 25 43  1  0
 26 44  1  0
M  END
$$$$
