
     RDKit          3D

 52 55  0  0  0  0  0  0  0  0999 V2000
    1.0246   -2.1382   -2.0963 O   0  0  0  0  0  0  0  0  0  0  0  0
    0.3212   -2.1381   -1.0376 C   0  0  0  0  0  0  0  0  0  0  0  0
    0.9093   -2.7980    0.0728 N   0  0  0  0  0  0  0  0  0  0  0  0
    2.1870   -3.4149    0.0149 C   0  0  0  0  0  0  0  0  0  0  0  0
    2.3708   -4.7335   -0.3484 C   0  0  0  0  0  0  0  0  0  0  0  0
    3.6330   -5.3058   -0.3949 C   0  0  0  0  0  0  0  0  0  0  0  0
    4.7375   -4.5486   -0.0725 C   0  0  0  0  0  0  0  0  0  0  0  0
    6.3317   -5.2688   -0.1306 Cl  0  0  0  0  0  0  0  0  0  0  0  0
    4.5536   -3.2269    0.2917 C   0  0  0  0  0  0  0  0  0  0  0  0
    3.2910   -2.6642    0.3354 C   0  0  0  0  0  0  0  0  0  0  0  0
    3.1327   -1.2822    0.7210 C   0  0  0  0  0  0  0  0  0  0  0  0
    1.9448   -0.8071    0.7502 O   0  0  0  0  0  0  0  0  0  0  0  0
    4.1922   -0.4024    1.0724 N   0  0  0  0  0  0  0  0  0  0  0  0
    3.8606    0.9389    1.4304 C   0  0  0  0  0  0  0  0  0  0  0  0
    3.8183    1.8785    0.4238 C   0  0  0  0  0  0  0  0  0  0  0  0
    3.5026    3.1889    0.7190 C   0  0  0  0  0  0  0  0  0  0  0  0
    3.2307    3.5564    2.0148 C   0  0  0  0  0  0  0  0  0  0  0  0
    2.8290    5.2336    2.3767 Cl  0  0  0  0  0  0  0  0  0  0  0  0
    3.2827    2.5914    2.9914 C   0  0  0  0  0  0  0  0  0  0  0  0
    3.5941    1.3128    2.6818 N   0  0  0  0  0  0  0  0  0  0  0  0
   -0.9867   -1.4962   -1.0098 C   0  0  0  0  0  0  0  0  0  0  0  0
   -1.4489   -0.8864   -2.1579 C   0  0  0  0  0  0  0  0  0  0  0  0
   -2.6818   -0.2628   -2.1881 C   0  0  0  0  0  0  0  0  0  0  0  0
   -3.5114   -0.2138   -1.0872 C   0  0  0  0  0  0  0  0  0  0  0  0
   -4.8391    0.4536   -1.1068 C   0  0  0  0  0  0  0  0  0  0  0  0
   -4.7578    1.8460   -0.7347 N   0  0  0  0  0  4  0  0  0  0  0  0
   -4.5603    2.8500   -1.6108 C   0  0  0  0  0  0  0  0  0  0  0  0
   -4.4847    4.1639   -1.2506 C   0  0  0  0  0  0  0  0  0  0  0  0
   -4.6132    4.5203    0.0741 C   0  0  0  0  0  0  0  0  0  0  0  0
   -4.8158    3.5063    0.9848 C   0  0  0  0  0  0  0  0  0  0  0  0
   -4.8834    2.1837    0.5526 C   0  0  0  0  0  0  0  0  0  0  0  0
   -3.0531   -0.8222    0.0626 C   0  0  0  0  0  0  0  0  0  0  0  0
   -1.8030   -1.4554    0.0958 C   0  0  0  0  0  0  0  0  0  0  0  0
    0.3425   -2.8106    0.9641 H   0  0  0  0  0  0  0  0  0  0  0  0
    1.5226   -5.3511   -0.6064 H   0  0  0  0  0  0  0  0  0  0  0  0
    3.7502   -6.3480   -0.6847 H   0  0  0  0  0  0  0  0  0  0  0  0
    5.4428   -2.6689    0.5363 H   0  0  0  0  0  0  0  0  0  0  0  0
    5.1566   -0.7642    1.0556 H   0  0  0  0  0  0  0  0  0  0  0  0
    4.0319    1.6091   -0.6209 H   0  0  0  0  0  0  0  0  0  0  0  0
    3.4701    3.9269   -0.0763 H   0  0  0  0  0  0  0  0  0  0  0  0
    3.0655    2.9003    4.0058 H   0  0  0  0  0  0  0  0  0  0  0  0
   -0.8067   -0.9169   -3.0325 H   0  0  0  0  0  0  0  0  0  0  0  0
   -3.0106    0.2055   -3.1091 H   0  0  0  0  0  0  0  0  0  0  0  0
   -5.2983    0.4239   -2.1291 H   0  0  0  0  0  0  0  0  0  0  0  0
   -5.5783   -0.1017   -0.4599 H   0  0  0  0  0  0  0  0  0  0  0  0
   -4.4604    2.5566   -2.6533 H   0  0  0  0  0  0  0  0  0  0  0  0
   -4.3240    4.9640   -1.9766 H   0  0  0  0  0  0  0  0  0  0  0  0
   -4.5564    5.5715    0.3932 H   0  0  0  0  0  0  0  0  0  0  0  0
   -4.9186    3.7708    2.0298 H   0  0  0  0  0  0  0  0  0  0  0  0
   -5.0419    1.4392    1.3017 H   0  0  0  0  0  0  0  0  0  0  0  0
   -3.6279   -0.8396    0.9806 H   0  0  0  0  0  0  0  0  0  0  0  0
   -1.4672   -1.9259    1.0130 H   0  0  0  0  0  0  0  0  0  0  0  0
  1  2  2  0
  2  3  1  0
  3  4  1  0
  4  5  2  0
  5  6  1  0
  6  7  2  0
  7  8  1  0
  7  9  1  0
  9 10  2  0
 10 11  1  0
 11 12  2  0
 11 13  1  0
 13 14  1  0
 14 15  2  0
 15 16  1  0
 16 17  2  0
 17 18  1  0
 17 19  1  0
 19 20  2  0
  2 21  1  0
 21 22  2  0
 22 23  1  0
 23 24  2  0
 24 25  1  0
 25 26  1  0
 26 27  2  0
 27 28  1  0
 28 29  2  0
 29 30  1  0
 30 31  2  0
 24 32  1  0
 32 33  2  0
 10  4  1  0
 20 14  1  0
 33 21  1  0
 31 26  1  0
  3 34  1  0
  5 35  1  0
  6 36  1  0
  9 37  1  0
 13 38  1  0
 15 39  1  0
 16 40  1  0
 19 41  1  0
 22 42  1  0
 23 43  1  0
 25 44  1  0
 25 45  1  0
 27 46  1  0
 28 47  1  0
 29 48  1  0
 30 49  1  0
 31 50  1  0
 32 51  1  0
 33 52  1  0
M  CHG  1  26   1
M  END
$$$$
