
     RDKit          3D

 47 49  0  0  0  0  0  0  0  0999 V2000
    8.5897    2.3841   -3.6404 Br  0  0  0  0  0  0  0  0  0  0  0  0
    7.2683    1.5414   -2.5539 C   0  0  0  0  0  0  0  0  0  0  0  0
    7.4629    0.2058   -2.2889 C   0  0  0  0  0  0  0  0  0  0  0  0
    6.5872   -0.5255   -1.5188 C   0  0  0  0  0  0  0  0  0  0  0  0
    5.4486    0.0631   -0.9660 C   0  0  0  0  0  0  0  0  0  0  0  0
    4.5149   -0.7030   -0.1513 C   0  0  0  0  0  0  0  0  0  0  0  0
    3.4143   -0.2569    0.4274 C   0  0  0  0  0  0  0  0  0  0  0  0
    2.5915   -1.1978    1.2205 C   0  0  0  0  0  0  0  0  0  0  0  0
    1.2386   -1.3305    0.7150 N   0  0  0  0  0  0  0  0  0  0  0  0
    0.4557   -0.1372    0.8963 C   0  0  0  0  0  0  0  0  0  0  0  0
   -0.9602   -0.3216    0.3310 C   0  0  0  0  0  0  0  0  0  0  0  0
   -1.5648   -1.3854    0.9988 N   0  0  0  0  0  0  0  0  0  0  0  0
   -3.1344   -1.8799    0.6397 S   0  0  0  0  0  0  0  0  0  0  0  0
   -3.4149   -3.0313    1.6105 O   0  0  0  0  0  0  0  0  0  0  0  0
   -3.2373   -2.5811   -0.7005 O   0  0  0  0  0  0  0  0  0  0  0  0
   -4.4008   -0.7404    0.8872 C   0  0  0  0  0  0  0  0  0  0  0  0
   -5.2728   -0.8467    1.9862 C   0  0  0  0  0  0  0  0  0  0  0  0
   -6.2701    0.0329    2.3259 C   0  0  0  0  0  0  0  0  0  0  0  0
   -6.4557    1.1374    1.5259 C   0  0  0  0  0  0  0  0  0  0  0  0
   -5.6513    1.3439    0.4090 C   0  0  0  0  0  0  0  0  0  0  0  0
   -4.6833    0.3975    0.1634 C   0  0  0  0  0  0  0  0  0  0  0  0
   -3.9264    0.6198   -0.9655 C   0  0  0  0  0  0  0  0  0  0  0  0
   -4.0807    1.6902   -1.8139 C   0  0  0  0  0  0  0  0  0  0  0  0
   -5.0481    2.5681   -1.4964 N   0  0  0  0  0  0  0  0  0  0  0  0
   -5.8285    2.4259   -0.4211 C   0  0  0  0  0  0  0  0  0  0  0  0
    5.2663    1.4030   -1.2402 C   0  0  0  0  0  0  0  0  0  0  0  0
    6.1510    2.1479   -2.0199 C   0  0  0  0  0  0  0  0  0  0  0  0
    8.3220   -0.3644   -2.6701 H   0  0  0  0  0  0  0  0  0  0  0  0
    6.7384   -1.5733   -1.3083 H   0  0  0  0  0  0  0  0  0  0  0  0
    4.7572   -1.7672   -0.0028 H   0  0  0  0  0  0  0  0  0  0  0  0
    3.1832    0.7836    0.2810 H   0  0  0  0  0  0  0  0  0  0  0  0
    3.0797   -2.1750    1.3040 H   0  0  0  0  0  0  0  0  0  0  0  0
    2.5913   -0.7746    2.2654 H   0  0  0  0  0  0  0  0  0  0  0  0
    0.7765   -2.1501    1.1707 H   0  0  0  0  0  0  0  0  0  0  0  0
    0.9437    0.7054    0.3629 H   0  0  0  0  0  0  0  0  0  0  0  0
    0.3895    0.1251    1.9745 H   0  0  0  0  0  0  0  0  0  0  0  0
   -1.4573    0.6628    0.5577 H   0  0  0  0  0  0  0  0  0  0  0  0
   -0.7912   -0.4607   -0.7525 H   0  0  0  0  0  0  0  0  0  0  0  0
   -1.4775   -1.2392    2.0324 H   0  0  0  0  0  0  0  0  0  0  0  0
   -5.1586   -1.7004    2.6408 H   0  0  0  0  0  0  0  0  0  0  0  0
   -6.8866   -0.1423    3.1937 H   0  0  0  0  0  0  0  0  0  0  0  0
   -7.2145    1.8439    1.7541 H   0  0  0  0  0  0  0  0  0  0  0  0
   -3.1697   -0.0943   -1.2447 H   0  0  0  0  0  0  0  0  0  0  0  0
   -3.5170    1.8993   -2.6924 H   0  0  0  0  0  0  0  0  0  0  0  0
   -6.6163    3.0951   -0.1208 H   0  0  0  0  0  0  0  0  0  0  0  0
    4.4194    1.9347   -0.8591 H   0  0  0  0  0  0  0  0  0  0  0  0
    6.0283    3.1906   -2.2467 H   0  0  0  0  0  0  0  0  0  0  0  0
  1  2  1  0
  2  3  2  0
  3  4  1  0
  4  5  2  0
  5  6  1  0
  6  7  2  0
  7  8  1  0
  8  9  1  0
  9 10  1  0
 10 11  1  0
 11 12  1  0
 12 13  1  0
 13 14  2  0
 13 15  2  0
 13 16  1  0
 16 17  2  0
 17 18  1  0
 18 19  2  0
 19 20  1  0
 20 21  2  0
 21 22  1  0
 22 23  2  0
 23 24  1  0
 24 25  2  0
  5 26  1  0
 26 27  2  0
 27  2  1  0
 21 16  1  0
 25 20  1  0
  3 28  1  0
  4 29  1  0
  6 30  1  0
  7 31  1  0
  8 32  1  0
  8 33  1  0
  9 34  1  0
 10 35  1  0
 10 36  1  0
 11 37  1  0
 11 38  1  0
 12 39  1  0
 17 40  1  0
 18 41  1  0
 19 42  1  0
 22 43  1  0
 23 44  1  0
 25 45  1  0
 26 46  1  0
 27 47  1  0
M  END
$$$$
