
     RDKit          3D

 42 44  0  0  0  0  0  0  0  0999 V2000
    1.8550    0.0950    0.5849 C   0  0  1  0  0  0  0  0  0  0  0  0
    3.1843    0.7656    0.5898 C   0  0  0  0  0  0  0  0  0  0  0  0
    4.1288   -0.1189    0.1016 O   0  0  0  0  0  0  0  0  0  0  0  0
    5.6706    0.5379    0.0640 P   0  0  0  0  0  0  0  0  0  0  0  0
    5.8571    1.7740   -1.0529 O   0  0  0  0  0  0  0  0  0  0  0  0
    6.0669    1.1320    1.6165 O   0  0  0  0  0  0  0  0  0  0  0  0
    6.6523   -0.5721   -0.2829 O   0  0  0  0  0  0  0  0  0  0  0  0
    0.8069    0.8932    1.0603 O   0  0  0  0  0  0  0  0  0  0  0  0
   -0.2987    0.0452    0.8708 C   0  0  1  0  0  0  0  0  0  0  0  0
   -1.5015    0.8413    0.8776 N   0  0  0  0  0  0  0  0  0  0  0  0
   -1.6104    2.1022    1.3843 C   0  0  0  0  0  0  0  0  0  0  0  0
   -2.8821    2.5484    1.2231 N   0  0  0  0  0  0  0  0  0  0  0  0
   -3.6180    1.5938    0.6136 C   0  0  0  0  0  0  0  0  0  0  0  0
   -4.9336    1.5459    0.2300 C   0  0  0  0  0  0  0  0  0  0  0  0
   -5.7883    2.6494    0.4637 N   0  0  0  0  0  0  0  0  0  0  0  0
   -5.3518    0.4095   -0.3692 N   0  0  0  0  0  0  0  0  0  0  0  0
   -4.4972   -0.6198   -0.5714 C   0  0  0  0  0  0  0  0  0  0  0  0
   -3.2068   -0.5524   -0.1864 N   0  0  0  0  0  0  0  0  0  0  0  0
   -2.7321    0.5534    0.4153 C   0  0  0  0  0  0  0  0  0  0  0  0
   -0.0707   -0.7105   -0.4073 C   0  0  2  0  0  0  0  0  0  0  0  0
    0.1100   -2.0481   -0.0665 O   0  0  0  0  0  0  0  0  0  0  0  0
   -0.8575   -3.1177   -0.8962 P   0  0  0  0  0  0  0  0  0  0  0  0
    0.0054   -4.5529   -1.1415 O   0  0  0  0  0  0  0  0  0  0  0  0
   -1.3847   -2.5486   -2.3849 O   0  0  0  0  0  0  0  0  0  0  0  0
   -2.0260   -3.4678    0.0125 O   0  0  0  0  0  0  0  0  0  0  0  0
    1.3264   -0.2088   -0.8018 C   0  0  2  0  0  0  0  0  0  0  0  0
    2.0874   -1.1843   -1.3921 O   0  0  0  0  0  0  0  0  0  0  0  0
    1.9181   -0.8473    1.1423 H   0  0  0  0  0  0  0  0  0  0  0  0
    3.2147    1.6924   -0.0071 H   0  0  0  0  0  0  0  0  0  0  0  0
    3.4352    0.9902    1.6357 H   0  0  0  0  0  0  0  0  0  0  0  0
    5.1347    2.4424   -1.0119 H   0  0  0  0  0  0  0  0  0  0  0  0
    5.9146    0.4136    2.2962 H   0  0  0  0  0  0  0  0  0  0  0  0
   -0.2723   -0.6214    1.7831 H   0  0  0  0  0  0  0  0  0  0  0  0
   -0.8187    2.6867    1.8517 H   0  0  0  0  0  0  0  0  0  0  0  0
   -5.8752    3.5223   -0.1016 H   0  0  0  0  0  0  0  0  0  0  0  0
   -6.3555    2.4530    1.3379 H   0  0  0  0  0  0  0  0  0  0  0  0
   -4.9243   -1.4996   -1.0639 H   0  0  0  0  0  0  0  0  0  0  0  0
   -0.8234   -0.5299   -1.1752 H   0  0  0  0  0  0  0  0  0  0  0  0
   -0.0091   -5.1277   -0.3291 H   0  0  0  0  0  0  0  0  0  0  0  0
   -0.7463   -2.8207   -3.1074 H   0  0  0  0  0  0  0  0  0  0  0  0
    1.2479    0.6964   -1.4318 H   0  0  0  0  0  0  0  0  0  0  0  0
    1.9680   -1.2352   -2.3740 H   0  0  0  0  0  0  0  0  0  0  0  0
  1  2  1  0
  2  3  1  0
  3  4  1  0
  4  5  1  0
  4  6  1  0
  4  7  2  0
  1  8  1  0
  8  9  1  0
  9 10  1  0
 10 11  1  0
 11 12  2  0
 12 13  1  0
 13 14  2  0
 14 15  1  0
 14 16  1  0
 16 17  2  0
 17 18  1  0
 18 19  2  0
  9 20  1  0
 20 21  1  0
 21 22  1  0
 22 23  1  0
 22 24  1  0
 22 25  2  0
 20 26  1  0
 26 27  1  0
 26  1  1  0
 19 10  1  0
 19 13  1  0
  1 28  1  1
  2 29  1  0
  2 30  1  0
  5 31  1  0
  6 32  1  0
  9 33  1  1
 11 34  1  0
 15 35  1  0
 15 36  1  0
 17 37  1  0
 20 38  1  6
 23 39  1  0
 24 40  1  0
 26 41  1  6
 27 42  1  0
M  END
$$$$
