
     RDKit          3D

 49 51  0  0  0  0  0  0  0  0999 V2000
    3.8390   -0.3211   -2.5398 O   0  0  0  0  0  0  0  0  0  0  0  0
    3.8705   -0.3168   -1.2724 C   0  0  0  0  0  0  0  0  0  0  0  0
    2.6814   -0.7461   -0.5067 C   0  0  0  0  0  0  0  0  0  0  0  0
    1.8664    0.4823   -0.1870 C   0  0  0  0  0  0  0  0  0  0  0  0
    0.6184    0.1667    0.6078 C   0  0  0  0  0  0  0  0  0  0  0  0
   -0.2299   -0.7238   -0.1148 N   0  0  0  0  0  0  0  0  0  0  0  0
   -0.8350   -0.2025   -1.2757 C   0  0  0  0  0  0  0  0  0  0  0  0
   -2.3054   -0.1139   -1.3012 C   0  0  0  0  0  0  0  0  0  0  0  0
   -3.0544   -0.7292   -0.1729 C   0  0  0  0  0  0  0  0  0  0  0  0
   -3.4307   -2.0400   -0.5585 O   0  0  0  0  0  0  0  0  0  0  0  0
   -4.3342   -0.0267    0.1024 C   0  0  0  0  0  0  0  0  0  0  0  0
   -5.5299   -0.4142   -0.5101 C   0  0  0  0  0  0  0  0  0  0  0  0
   -6.7228    0.2152   -0.2772 C   0  0  0  0  0  0  0  0  0  0  0  0
   -6.7762    1.2712    0.5870 C   0  0  0  0  0  0  0  0  0  0  0  0
   -8.3143    2.0813    0.8864 Cl  0  0  0  0  0  0  0  0  0  0  0  0
   -5.6387    1.6957    1.2162 C   0  0  0  0  0  0  0  0  0  0  0  0
   -4.4299    1.0421    0.9670 C   0  0  0  0  0  0  0  0  0  0  0  0
   -2.2565   -0.9009    1.0971 C   0  0  0  0  0  0  0  0  0  0  0  0
   -0.9770   -1.6361    0.6664 C   0  0  0  0  0  0  0  0  0  0  0  0
    5.0669    0.1073   -0.5712 C   0  0  0  0  0  0  0  0  0  0  0  0
    5.1215    0.1548    0.7946 C   0  0  0  0  0  0  0  0  0  0  0  0
    6.2762    0.5555    1.4635 C   0  0  0  0  0  0  0  0  0  0  0  0
    7.3788    0.9092    0.7445 C   0  0  0  0  0  0  0  0  0  0  0  0
    8.4937    1.2961    1.4086 F   0  0  0  0  0  0  0  0  0  0  0  0
    7.3447    0.8687   -0.6314 C   0  0  0  0  0  0  0  0  0  0  0  0
    6.2123    0.4753   -1.2958 C   0  0  0  0  0  0  0  0  0  0  0  0
    2.9682   -1.2414    0.4104 H   0  0  0  0  0  0  0  0  0  0  0  0
    2.0850   -1.4606   -1.1493 H   0  0  0  0  0  0  0  0  0  0  0  0
    1.6126    0.9621   -1.1544 H   0  0  0  0  0  0  0  0  0  0  0  0
    2.5279    1.1979    0.3413 H   0  0  0  0  0  0  0  0  0  0  0  0
    0.9276   -0.3362    1.5462 H   0  0  0  0  0  0  0  0  0  0  0  0
    0.1445    1.1314    0.8595 H   0  0  0  0  0  0  0  0  0  0  0  0
   -0.4083    0.8178   -1.4729 H   0  0  0  0  0  0  0  0  0  0  0  0
   -0.4807   -0.8199   -2.1551 H   0  0  0  0  0  0  0  0  0  0  0  0
   -2.7147   -0.5652   -2.2547 H   0  0  0  0  0  0  0  0  0  0  0  0
   -2.6543    0.9613   -1.3671 H   0  0  0  0  0  0  0  0  0  0  0  0
   -4.1296   -2.3874    0.0509 H   0  0  0  0  0  0  0  0  0  0  0  0
   -5.4630   -1.2517   -1.1895 H   0  0  0  0  0  0  0  0  0  0  0  0
   -7.6134   -0.1123   -0.7653 H   0  0  0  0  0  0  0  0  0  0  0  0
   -5.6326    2.5305    1.9110 H   0  0  0  0  0  0  0  0  0  0  0  0
   -3.5157    1.3771    1.4669 H   0  0  0  0  0  0  0  0  0  0  0  0
   -2.8037   -1.6282    1.7323 H   0  0  0  0  0  0  0  0  0  0  0  0
   -1.9961    0.0326    1.5980 H   0  0  0  0  0  0  0  0  0  0  0  0
   -0.4038   -1.9339    1.5438 H   0  0  0  0  0  0  0  0  0  0  0  0
   -1.3205   -2.4780    0.0299 H   0  0  0  0  0  0  0  0  0  0  0  0
    4.2529   -0.1184    1.3605 H   0  0  0  0  0  0  0  0  0  0  0  0
    6.2776    0.5785    2.5373 H   0  0  0  0  0  0  0  0  0  0  0  0
    8.2416    1.1578   -1.1589 H   0  0  0  0  0  0  0  0  0  0  0  0
    6.1638    0.4363   -2.3577 H   0  0  0  0  0  0  0  0  0  0  0  0
  1  2  2  0
  2  3  1  0
  3  4  1  0
  4  5  1  0
  5  6  1  0
  6  7  1  0
  7  8  1  0
  8  9  1  0
  9 10  1  0
  9 11  1  0
 11 12  2  0
 12 13  1  0
 13 14  2  0
 14 15  1  0
 14 16  1  0
 16 17  2  0
  9 18  1  0
 18 19  1  0
  2 20  1  0
 20 21  2  0
 21 22  1  0
 22 23  2  0
 23 24  1  0
 23 25  1  0
 25 26  2  0
 19  6  1  0
 26 20  1  0
 17 11  1  0
  3 27  1  0
  3 28  1  0
  4 29  1  0
  4 30  1  0
  5 31  1  0
  5 32  1  0
  7 33  1  0
  7 34  1  0
  8 35  1  0
  8 36  1  0
 10 37  1  0
 12 38  1  0
 13 39  1  0
 16 40  1  0
 17 41  1  0
 18 42  1  0
 18 43  1  0
 19 44  1  0
 19 45  1  0
 21 46  1  0
 22 47  1  0
 25 48  1  0
 26 49  1  0
M  END
$$$$
