
     RDKit          3D

 40 43  0  0  0  0  0  0  0  0999 V2000
    3.1454   -3.1194    0.9128 C   0  0  0  0  0  0  0  0  0  0  0  0
    2.9837   -1.8486    0.1214 C   0  0  0  0  0  0  0  0  0  0  0  0
    2.0605   -0.8891    0.4781 C   0  0  0  0  0  0  0  0  0  0  0  0
    1.9213    0.2706   -0.2531 C   0  0  0  0  0  0  0  0  0  0  0  0
    0.9552    1.3065    0.0949 C   0  0  0  0  0  0  0  0  0  0  0  0
    1.2772    2.5778    0.4760 N   0  0  0  0  0  0  0  0  0  0  0  0
    0.1647    3.2821    0.7280 C   0  0  0  0  0  0  0  0  0  0  0  0
    0.0459    4.6963    1.1678 C   0  0  0  0  0  0  0  0  0  0  0  0
   -0.8610    2.4412    0.5017 N   0  0  0  0  0  0  0  0  0  0  0  0
   -2.2605    2.8282    0.6654 C   0  0  0  0  0  0  0  0  0  0  0  0
   -0.4103    1.2476    0.1199 C   0  0  0  0  0  0  0  0  0  0  0  0
   -1.2383    0.1051   -0.2063 C   0  0  0  0  0  0  0  0  0  0  0  0
   -1.2806   -0.4933   -1.4475 C   0  0  0  0  0  0  0  0  0  0  0  0
   -2.0603   -1.5718   -1.7649 C   0  0  0  0  0  0  0  0  0  0  0  0
   -2.8896   -2.1406   -0.7918 C   0  0  0  0  0  0  0  0  0  0  0  0
   -3.7046   -3.1768   -0.9190 N   0  0  0  0  0  0  0  0  0  0  0  0
   -4.3856   -3.6459   -0.1261 C   0  0  0  0  0  0  0  0  0  0  0  0
   -4.0020   -2.5328    1.3526 S   0  0  0  0  0  0  0  0  0  0  0  0
   -2.8624   -1.5674    0.4338 C   0  0  0  0  0  0  0  0  0  0  0  0
   -2.0579   -0.4534    0.7643 C   0  0  0  0  0  0  0  0  0  0  0  0
    2.7444    0.4199   -1.3481 C   0  0  0  0  0  0  0  0  0  0  0  0
    3.6737   -0.5413   -1.7109 C   0  0  0  0  0  0  0  0  0  0  0  0
    3.8079   -1.6947   -0.9787 C   0  0  0  0  0  0  0  0  0  0  0  0
    4.7134   -2.6670   -1.3057 F   0  0  0  0  0  0  0  0  0  0  0  0
    3.3455   -3.9828    0.2438 H   0  0  0  0  0  0  0  0  0  0  0  0
    2.2593   -3.2628    1.5511 H   0  0  0  0  0  0  0  0  0  0  0  0
    4.0552   -3.0278    1.5638 H   0  0  0  0  0  0  0  0  0  0  0  0
    1.4489   -1.0722    1.3483 H   0  0  0  0  0  0  0  0  0  0  0  0
    0.7575    4.9037    2.0167 H   0  0  0  0  0  0  0  0  0  0  0  0
    0.3446    5.3992    0.3485 H   0  0  0  0  0  0  0  0  0  0  0  0
   -0.9615    4.9129    1.5778 H   0  0  0  0  0  0  0  0  0  0  0  0
   -2.3894    3.9091    0.4279 H   0  0  0  0  0  0  0  0  0  0  0  0
   -2.5755    2.6794    1.7243 H   0  0  0  0  0  0  0  0  0  0  0  0
   -2.8911    2.2793   -0.0564 H   0  0  0  0  0  0  0  0  0  0  0  0
   -0.6286   -0.0415   -2.2036 H   0  0  0  0  0  0  0  0  0  0  0  0
   -1.9872   -1.9325   -2.7804 H   0  0  0  0  0  0  0  0  0  0  0  0
   -5.1281   -4.4690    0.0302 H   0  0  0  0  0  0  0  0  0  0  0  0
   -2.1018   -0.0601    1.7768 H   0  0  0  0  0  0  0  0  0  0  0  0
    2.6685    1.3216   -1.9550 H   0  0  0  0  0  0  0  0  0  0  0  0
    4.3035   -0.3896   -2.5784 H   0  0  0  0  0  0  0  0  0  0  0  0
  1  2  1  0
  2  3  2  0
  3  4  1  0
  4  5  1  0
  5  6  1  0
  6  7  2  0
  7  8  1  0
  7  9  1  0
  9 10  1  0
  9 11  1  0
 11 12  1  0
 12 13  2  0
 13 14  1  0
 14 15  2  0
 15 16  1  0
 16 17  2  0
 17 18  1  0
 18 19  1  0
 19 20  2  0
  4 21  2  0
 21 22  1  0
 22 23  2  0
 23 24  1  0
 23  2  1  0
 11  5  2  0
 20 12  1  0
 19 15  1  0
  1 25  1  0
  1 26  1  0
  1 27  1  0
  3 28  1  0
  8 29  1  0
  8 30  1  0
  8 31  1  0
 10 32  1  0
 10 33  1  0
 10 34  1  0
 13 35  1  0
 14 36  1  0
 17 37  1  0
 20 38  1  0
 21 39  1  0
 22 40  1  0
M  END
$$$$
