
     RDKit          3D

 29 30  0  0  0  0  0  0  0  0999 V2000
    2.2291   -1.7789    0.0788 O   0  0  0  0  0  0  0  0  0  0  0  0
    2.3322   -1.0776   -1.1172 C   0  0  0  0  0  0  0  0  0  0  0  0
    1.1889   -0.0602   -1.2492 C   0  0  1  0  0  0  0  0  0  0  0  0
   -0.0298   -0.6291   -1.2321 O   0  0  0  0  0  0  0  0  0  0  0  0
   -0.9066   -0.3927   -0.2358 C   0  0  1  0  0  0  0  0  0  0  0  0
   -2.2361   -0.2974   -0.8651 N   0  0  0  0  0  0  0  0  0  0  0  0
   -3.2457   -0.7023    0.0646 C   0  0  0  0  0  0  0  0  0  0  0  0
   -4.4799   -0.3965    0.0265 O   0  0  0  0  0  0  0  0  0  0  0  0
   -2.5528   -1.5167    1.0287 N   0  0  0  0  0  0  0  0  0  0  0  0
   -1.1605   -1.5779    0.6555 C   0  0  0  0  0  0  0  0  0  0  0  0
   -0.5622   -2.5844    1.1696 O   0  0  0  0  0  0  0  0  0  0  0  0
   -0.7602    0.8694    0.5388 C   0  0  2  0  0  0  0  0  0  0  0  0
   -1.0670    1.9372   -0.3301 O   0  0  0  0  0  0  0  0  0  0  0  0
    0.6666    1.0401    0.9501 C   0  0  1  0  0  0  0  0  0  0  0  0
    1.0929    0.1189    1.8827 O   0  0  0  0  0  0  0  0  0  0  0  0
    1.4824    1.0543   -0.3118 C   0  0  2  0  0  0  0  0  0  0  0  0
    1.2641    2.2927   -0.9278 O   0  0  0  0  0  0  0  0  0  0  0  0
    3.1245   -1.9099    0.4844 H   0  0  0  0  0  0  0  0  0  0  0  0
    3.3059   -0.5454   -1.0985 H   0  0  0  0  0  0  0  0  0  0  0  0
    2.3673   -1.7619   -1.9869 H   0  0  0  0  0  0  0  0  0  0  0  0
    1.3251    0.3480   -2.2860 H   0  0  0  0  0  0  0  0  0  0  0  0
   -2.4660    0.0174   -1.8538 H   0  0  0  0  0  0  0  0  0  0  0  0
   -3.1245   -1.9272    1.8210 H   0  0  0  0  0  0  0  0  0  0  0  0
   -1.4803    0.8471    1.3766 H   0  0  0  0  0  0  0  0  0  0  0  0
   -2.0362    2.1157   -0.3422 H   0  0  0  0  0  0  0  0  0  0  0  0
    0.7620    2.0608    1.4102 H   0  0  0  0  0  0  0  0  0  0  0  0
    0.7402    0.3782    2.7721 H   0  0  0  0  0  0  0  0  0  0  0  0
    2.5523    1.0647   -0.0121 H   0  0  0  0  0  0  0  0  0  0  0  0
    1.6746    3.0138   -0.4109 H   0  0  0  0  0  0  0  0  0  0  0  0
  1  2  1  0
  2  3  1  0
  3  4  1  0
  5  4  1  6
  5  6  1  0
  6  7  1  0
  7  8  2  0
  7  9  1  0
  9 10  1  0
 10 11  2  0
  5 12  1  0
 12 13  1  0
 12 14  1  0
 14 15  1  0
 14 16  1  0
 16 17  1  0
 16  3  1  0
 10  5  1  0
  1 18  1  0
  2 19  1  0
  2 20  1  0
  3 21  1  6
  6 22  1  0
  9 23  1  0
 12 24  1  1
 13 25  1  0
 14 26  1  1
 15 27  1  0
 16 28  1  1
 17 29  1  0
M  END
$$$$
