
     RDKit          3D

 43 46  0  0  0  0  0  0  0  0999 V2000
    4.0481    0.8355   -1.7795 O   0  0  0  0  0  0  0  0  0  0  0  0
    3.9564    1.8286   -1.0307 C   0  0  0  0  0  0  0  0  0  0  0  0
    4.6541    2.9981   -1.2942 O   0  0  0  0  0  0  0  0  0  0  0  0
    3.0974    1.7698    0.1550 C   0  0  0  0  0  0  0  0  0  0  0  0
    2.4315    0.4921    0.3106 N   0  0  0  0  0  0  0  0  0  0  0  0
    1.2284    0.1374   -0.1999 C   0  0  0  0  0  0  0  0  0  0  0  0
    0.9387   -1.1564    0.1685 C   0  0  0  0  0  0  0  0  0  0  0  0
    2.0167   -1.5791    0.9276 C   0  0  0  0  0  0  0  0  0  0  0  0
    2.2268   -2.7841    1.5358 C   0  0  0  0  0  0  0  0  0  0  0  0
    3.4017   -2.9501    2.2453 C   0  0  0  0  0  0  0  0  0  0  0  0
    4.3150   -1.9144    2.3202 C   0  0  0  0  0  0  0  0  0  0  0  0
    4.1012   -0.6935    1.7040 C   0  0  0  0  0  0  0  0  0  0  0  0
    2.9181   -0.5446    0.9970 C   0  0  0  0  0  0  0  0  0  0  0  0
   -0.3179   -1.7934   -0.2607 C   0  0  0  0  0  0  0  0  0  0  0  0
   -1.3268   -0.7635   -0.4466 N   0  0  0  0  0  0  0  0  0  0  0  0
   -2.6002   -0.9592    0.1135 C   0  0  0  0  0  0  0  0  0  0  0  0
   -2.7984   -2.0452    0.7626 O   0  0  0  0  0  0  0  0  0  0  0  0
   -3.7104   -0.0412    0.0210 C   0  0  0  0  0  0  0  0  0  0  0  0
   -3.7003    1.1895    0.6192 C   0  0  0  0  0  0  0  0  0  0  0  0
   -4.8069    2.0388    0.5042 C   0  0  0  0  0  0  0  0  0  0  0  0
   -5.9235    1.6515   -0.2104 C   0  0  0  0  0  0  0  0  0  0  0  0
   -5.9058    0.4013   -0.8044 C   0  0  0  0  0  0  0  0  0  0  0  0
   -7.3463   -0.0753   -1.7075 Cl  0  0  0  0  0  0  0  0  0  0  0  0
   -4.8295   -0.4514   -0.7061 C   0  0  0  0  0  0  0  0  0  0  0  0
   -1.0527    0.4396   -1.1846 C   0  0  0  0  0  0  0  0  0  0  0  0
    0.3252    0.9659   -1.0255 C   0  0  0  0  0  0  0  0  0  0  0  0
    5.5526    2.9268   -1.7757 H   0  0  0  0  0  0  0  0  0  0  0  0
    3.6548    1.9447    1.1028 H   0  0  0  0  0  0  0  0  0  0  0  0
    2.2834    2.5345    0.0864 H   0  0  0  0  0  0  0  0  0  0  0  0
    1.4807   -3.5621    1.4448 H   0  0  0  0  0  0  0  0  0  0  0  0
    3.5927   -3.9129    2.7440 H   0  0  0  0  0  0  0  0  0  0  0  0
    5.2323   -2.1085    2.9009 H   0  0  0  0  0  0  0  0  0  0  0  0
    4.8317    0.0964    1.7785 H   0  0  0  0  0  0  0  0  0  0  0  0
   -0.7097   -2.5678    0.4014 H   0  0  0  0  0  0  0  0  0  0  0  0
   -0.1285   -2.2137   -1.2827 H   0  0  0  0  0  0  0  0  0  0  0  0
   -2.8276    1.4824    1.1808 H   0  0  0  0  0  0  0  0  0  0  0  0
   -4.7577    3.0123    0.9940 H   0  0  0  0  0  0  0  0  0  0  0  0
   -6.7799    2.3179   -0.2961 H   0  0  0  0  0  0  0  0  0  0  0  0
   -4.8322   -1.4324   -1.1757 H   0  0  0  0  0  0  0  0  0  0  0  0
   -1.7990    1.2010   -0.9222 H   0  0  0  0  0  0  0  0  0  0  0  0
   -1.2401    0.2032   -2.2753 H   0  0  0  0  0  0  0  0  0  0  0  0
    0.2921    1.9863   -0.5698 H   0  0  0  0  0  0  0  0  0  0  0  0
    0.8138    1.0952   -2.0215 H   0  0  0  0  0  0  0  0  0  0  0  0
  1  2  2  0
  2  3  1  0
  2  4  1  0
  4  5  1  0
  5  6  1  0
  6  7  2  0
  7  8  1  0
  8  9  2  0
  9 10  1  0
 10 11  2  0
 11 12  1  0
 12 13  2  0
  7 14  1  0
 14 15  1  0
 15 16  1  0
 16 17  2  0
 16 18  1  0
 18 19  2  0
 19 20  1  0
 20 21  2  0
 21 22  1  0
 22 23  1  0
 22 24  2  0
 15 25  1  0
 25 26  1  0
 13  5  1  0
 24 18  1  0
 26  6  1  0
 13  8  1  0
  3 27  1  0
  4 28  1  0
  4 29  1  0
  9 30  1  0
 10 31  1  0
 11 32  1  0
 12 33  1  0
 14 34  1  0
 14 35  1  0
 19 36  1  0
 20 37  1  0
 21 38  1  0
 24 39  1  0
 25 40  1  0
 25 41  1  0
 26 42  1  0
 26 43  1  0
M  END
$$$$
