
     RDKit          3D

 52 55  0  0  0  0  0  0  0  0999 V2000
    8.7599    0.7113   -0.5703 C   0  0  0  0  0  0  0  0  0  0  0  0
    7.4146    0.1455   -0.2849 C   0  0  0  0  0  0  0  0  0  0  0  0
    6.3695    0.4961   -1.1139 C   0  0  0  0  0  0  0  0  0  0  0  0
    5.1287   -0.0370   -0.8398 C   0  0  0  0  0  0  0  0  0  0  0  0
    3.9272    0.1155   -1.4636 N   0  0  0  0  0  0  0  0  0  0  0  0
    2.9987   -0.5920   -0.8541 N   0  0  0  0  0  0  0  0  0  0  0  0
    1.6311   -0.7899   -1.1676 C   0  0  0  0  0  0  0  0  0  0  0  0
    0.6495    0.0571   -0.4997 C   0  0  0  0  0  0  0  0  0  0  0  0
   -0.6868   -0.3604   -0.5904 C   0  0  0  0  0  0  0  0  0  0  0  0
   -1.7172    0.3284   -0.0108 C   0  0  0  0  0  0  0  0  0  0  0  0
   -3.1123   -0.1510   -0.1306 C   0  0  2  0  0  0  0  0  0  0  0  0
   -3.9594    0.9111   -0.4282 O   0  0  0  0  0  0  0  0  0  0  0  0
   -5.2606    0.5418   -0.6556 C   0  0  2  0  0  0  0  0  0  0  0  0
   -6.0564    1.7708   -1.0314 C   0  0  0  0  0  0  0  0  0  0  0  0
   -5.5148    2.3214   -2.1744 O   0  0  0  0  0  0  0  0  0  0  0  0
   -5.8462   -0.1419    0.5658 C   0  0  1  0  0  0  0  0  0  0  0  0
   -7.1700   -0.4757    0.3962 O   0  0  0  0  0  0  0  0  0  0  0  0
   -4.9748   -1.3705    0.8137 C   0  0  2  0  0  0  0  0  0  0  0  0
   -5.4584   -2.2001    1.7921 O   0  0  0  0  0  0  0  0  0  0  0  0
   -3.5975   -0.7878    1.1581 C   0  0  1  0  0  0  0  0  0  0  0  0
   -2.7306   -1.7459    1.6496 O   0  0  0  0  0  0  0  0  0  0  0  0
   -1.3945    1.4740    0.6825 C   0  0  0  0  0  0  0  0  0  0  0  0
   -0.1068    1.9202    0.7980 C   0  0  0  0  0  0  0  0  0  0  0  0
    0.9189    1.1951    0.1960 C   0  0  0  0  0  0  0  0  0  0  0  0
    2.5488    1.8023    0.3708 Cl  0  0  0  0  0  0  0  0  0  0  0  0
    3.6271   -1.2039    0.1787 C   0  0  0  0  0  0  0  0  0  0  0  0
    3.0969   -1.9650    1.0019 O   0  0  0  0  0  0  0  0  0  0  0  0
    4.9243   -0.8676    0.1894 N   0  0  0  0  0  0  0  0  0  0  0  0
    5.9355   -1.2189    1.0072 C   0  0  0  0  0  0  0  0  0  0  0  0
    7.2046   -0.7090    0.7741 C   0  0  0  0  0  0  0  0  0  0  0  0
    8.5494   -1.1347    1.8078 Cl  0  0  0  0  0  0  0  0  0  0  0  0
    9.3534    0.0022   -1.1744 H   0  0  0  0  0  0  0  0  0  0  0  0
    9.2602    0.8611    0.4041 H   0  0  0  0  0  0  0  0  0  0  0  0
    8.7043    1.6608   -1.1155 H   0  0  0  0  0  0  0  0  0  0  0  0
    6.5289    1.1720   -1.9522 H   0  0  0  0  0  0  0  0  0  0  0  0
    1.3606   -1.8838   -1.0156 H   0  0  0  0  0  0  0  0  0  0  0  0
    1.4794   -0.6586   -2.2796 H   0  0  0  0  0  0  0  0  0  0  0  0
   -0.8971   -1.2732   -1.1489 H   0  0  0  0  0  0  0  0  0  0  0  0
   -3.1619   -0.9470   -0.9059 H   0  0  0  0  0  0  0  0  0  0  0  0
   -5.3698   -0.1846   -1.5014 H   0  0  0  0  0  0  0  0  0  0  0  0
   -7.1181    1.5073   -1.2102 H   0  0  0  0  0  0  0  0  0  0  0  0
   -5.9583    2.5259   -0.2180 H   0  0  0  0  0  0  0  0  0  0  0  0
   -4.8559    3.0210   -1.9323 H   0  0  0  0  0  0  0  0  0  0  0  0
   -5.7330    0.4925    1.4619 H   0  0  0  0  0  0  0  0  0  0  0  0
   -7.3596   -1.0126   -0.3885 H   0  0  0  0  0  0  0  0  0  0  0  0
   -4.8536   -1.8517   -0.1819 H   0  0  0  0  0  0  0  0  0  0  0  0
   -5.1138   -3.1266    1.5933 H   0  0  0  0  0  0  0  0  0  0  0  0
   -3.8009    0.0440    1.8788 H   0  0  0  0  0  0  0  0  0  0  0  0
   -2.3307   -1.3592    2.4899 H   0  0  0  0  0  0  0  0  0  0  0  0
   -2.1915    2.0443    1.1555 H   0  0  0  0  0  0  0  0  0  0  0  0
    0.1704    2.8137    1.3359 H   0  0  0  0  0  0  0  0  0  0  0  0
    5.7888   -1.8867    1.8417 H   0  0  0  0  0  0  0  0  0  0  0  0
  1  2  1  0
  2  3  2  0
  3  4  1  0
  4  5  2  0
  5  6  1  0
  6  7  1  0
  7  8  1  0
  8  9  2  0
  9 10  1  0
 10 11  1  0
 11 12  1  0
 12 13  1  0
 13 14  1  0
 14 15  1  0
 13 16  1  0
 16 17  1  0
 16 18  1  0
 18 19  1  0
 18 20  1  0
 20 21  1  0
 10 22  2  0
 22 23  1  0
 23 24  2  0
 24 25  1  0
  6 26  1  0
 26 27  2  0
 26 28  1  0
 28 29  1  0
 29 30  2  0
 30 31  1  0
 30  2  1  0
 28  4  1  0
 24  8  1  0
 20 11  1  0
  1 32  1  0
  1 33  1  0
  1 34  1  0
  3 35  1  0
  7 36  1  0
  7 37  1  0
  9 38  1  0
 11 39  1  6
 13 40  1  6
 14 41  1  0
 14 42  1  0
 15 43  1  0
 16 44  1  1
 17 45  1  0
 18 46  1  6
 19 47  1  0
 20 48  1  1
 21 49  1  0
 22 50  1  0
 23 51  1  0
 29 52  1  0
M  END
$$$$
