
     RDKit          3D

 21 22  0  0  0  0  0  0  0  0999 V2000
   -3.1209    0.0247   -0.9359 N   0  0  0  0  0  0  0  0  0  0  0  0
   -1.9038   -0.6017   -0.4827 C   0  0  2  0  0  0  0  0  0  0  0  0
   -1.7713   -1.1133    0.9030 C   0  0  0  0  0  0  0  0  0  0  0  0
   -1.0904    0.1635    0.5826 C   0  0  1  0  0  0  0  0  0  0  0  0
    0.3372    0.2282    0.2758 C   0  0  0  0  0  0  0  0  0  0  0  0
    1.0560    1.3952    0.4334 C   0  0  0  0  0  0  0  0  0  0  0  0
    2.4108    1.4856    0.1501 C   0  0  0  0  0  0  0  0  0  0  0  0
    3.0629    0.3630   -0.3070 C   0  0  0  0  0  0  0  0  0  0  0  0
    2.3451   -0.8087   -0.4661 C   0  0  0  0  0  0  0  0  0  0  0  0
    1.0167   -0.8766   -0.1827 C   0  0  0  0  0  0  0  0  0  0  0  0
   -3.7012    0.3742   -0.1641 H   0  0  0  0  0  0  0  0  0  0  0  0
   -2.8415    0.8351   -1.5459 H   0  0  0  0  0  0  0  0  0  0  0  0
   -1.3640   -1.1539   -1.2533 H   0  0  0  0  0  0  0  0  0  0  0  0
   -2.6932   -1.0402    1.5195 H   0  0  0  0  0  0  0  0  0  0  0  0
   -1.1628   -2.0174    1.1232 H   0  0  0  0  0  0  0  0  0  0  0  0
   -1.5415    1.1131    0.9464 H   0  0  0  0  0  0  0  0  0  0  0  0
    0.5489    2.2983    0.7972 H   0  0  0  0  0  0  0  0  0  0  0  0
    2.9099    2.4227    0.2945 H   0  0  0  0  0  0  0  0  0  0  0  0
    4.1154    0.4176   -0.5313 H   0  0  0  0  0  0  0  0  0  0  0  0
    2.8741   -1.6803   -0.8262 H   0  0  0  0  0  0  0  0  0  0  0  0
    0.5135   -1.8291   -0.3304 H   0  0  0  0  0  0  0  0  0  0  0  0
  1  2  1  0
  2  3  1  0
  3  4  1  0
  4  5  1  0
  5  6  2  0
  6  7  1  0
  7  8  2  0
  8  9  1  0
  9 10  2  0
  4  2  1  0
 10  5  1  0
  1 11  1  0
  1 12  1  0
  2 13  1  6
  3 14  1  0
  3 15  1  0
  4 16  1  1
  6 17  1  0
  7 18  1  0
  8 19  1  0
  9 20  1  0
 10 21  1  0
M  END
$$$$
