
     RDKit          3D

 31 33  0  0  0  0  0  0  0  0999 V2000
    3.7211   -0.2941    2.0954 O   0  0  0  0  0  0  0  0  0  0  0  0
    2.3704   -0.6093    2.0308 C   0  0  0  0  0  0  0  0  0  0  0  0
    1.9949   -0.8154    0.5786 C   0  0  1  0  0  0  0  0  0  0  0  0
    0.6706   -1.1310    0.4368 O   0  0  0  0  0  0  0  0  0  0  0  0
    0.2271   -0.7196   -0.7928 C   0  0  1  0  0  0  0  0  0  0  0  0
   -1.0351   -0.0151   -0.7215 N   0  0  0  0  0  0  0  0  0  0  0  0
   -1.4918    0.8526   -1.6294 C   0  0  0  0  0  0  0  0  0  0  0  0
   -2.7144    1.3130   -1.2219 C   0  0  0  0  0  0  0  0  0  0  0  0
   -3.9460    2.6966   -2.2131 I   0  0  0  0  0  0  0  0  0  0  0  0
   -3.0045    0.6904   -0.0101 C   0  0  0  0  0  0  0  0  0  0  0  0
   -4.0908    0.7783    0.8413 C   0  0  0  0  0  0  0  0  0  0  0  0
   -5.3864    1.8432    0.3939 Cl  0  0  0  0  0  0  0  0  0  0  0  0
   -4.0662    0.0362    1.9498 N   0  0  0  0  0  0  0  0  0  0  0  0
   -3.0287   -0.7727    2.2414 C   0  0  0  0  0  0  0  0  0  0  0  0
   -1.9721   -0.8558    1.4095 N   0  0  0  0  0  0  0  0  0  0  0  0
   -1.9252   -0.1370    0.2716 C   0  0  0  0  0  0  0  0  0  0  0  0
    1.3105    0.0995   -1.4397 C   0  0  2  0  0  0  0  0  0  0  0  0
    2.1402   -0.7247   -2.2257 O   0  0  0  0  0  0  0  0  0  0  0  0
    2.1458    0.4721   -0.2069 C   0  0  2  0  0  0  0  0  0  0  0  0
    3.4495    0.7577   -0.5370 O   0  0  0  0  0  0  0  0  0  0  0  0
    4.1898   -0.9431    1.5064 H   0  0  0  0  0  0  0  0  0  0  0  0
    2.2292   -1.5904    2.5385 H   0  0  0  0  0  0  0  0  0  0  0  0
    1.7159    0.1669    2.4388 H   0  0  0  0  0  0  0  0  0  0  0  0
    2.6356   -1.6030    0.1029 H   0  0  0  0  0  0  0  0  0  0  0  0
    0.1132   -1.6461   -1.4253 H   0  0  0  0  0  0  0  0  0  0  0  0
   -0.9931    1.1482   -2.5324 H   0  0  0  0  0  0  0  0  0  0  0  0
   -3.0646   -1.3615    3.1712 H   0  0  0  0  0  0  0  0  0  0  0  0
    0.9623    0.9756   -1.9773 H   0  0  0  0  0  0  0  0  0  0  0  0
    1.7091   -1.6010   -2.3980 H   0  0  0  0  0  0  0  0  0  0  0  0
    1.6455    1.2661    0.3856 H   0  0  0  0  0  0  0  0  0  0  0  0
    3.4881    1.7231   -0.7818 H   0  0  0  0  0  0  0  0  0  0  0  0
  1  2  1  0
  2  3  1  0
  3  4  1  0
  4  5  1  0
  5  6  1  0
  6  7  1  0
  7  8  2  0
  8  9  1  0
  8 10  1  0
 10 11  2  0
 11 12  1  0
 11 13  1  0
 13 14  2  0
 14 15  1  0
 15 16  2  0
  5 17  1  0
 17 18  1  0
 17 19  1  0
 19 20  1  0
 19  3  1  0
 16  6  1  0
 16 10  1  0
  1 21  1  0
  2 22  1  0
  2 23  1  0
  3 24  1  6
  5 25  1  6
  7 26  1  0
 14 27  1  0
 17 28  1  6
 18 29  1  0
 19 30  1  1
 20 31  1  0
M  END
$$$$
