
     RDKit          3D

 47 49  0  0  0  0  0  0  0  0999 V2000
    0.5013   -4.3398    0.8447 C   0  0  0  0  0  0  0  0  0  0  0  0
    0.3116   -2.8874    0.6052 C   0  0  0  0  0  0  0  0  0  0  0  0
   -0.9591   -2.3746    0.7357 C   0  0  0  0  0  0  0  0  0  0  0  0
   -1.1458   -1.0314    0.5162 C   0  0  0  0  0  0  0  0  0  0  0  0
   -2.4333   -0.4349    0.6339 N   0  0  0  0  0  0  0  0  0  0  0  0
   -3.3340   -0.3288   -0.4514 C   0  0  0  0  0  0  0  0  0  0  0  0
   -3.0047   -0.7736   -1.5777 O   0  0  0  0  0  0  0  0  0  0  0  0
   -4.6476    0.2883   -0.2993 C   0  0  0  0  0  0  0  0  0  0  0  0
   -5.5225    0.3922   -1.3502 C   0  0  0  0  0  0  0  0  0  0  0  0
   -6.7644    0.9772   -1.2008 C   0  0  0  0  0  0  0  0  0  0  0  0
   -7.1609    1.4756    0.0160 C   0  0  0  0  0  0  0  0  0  0  0  0
   -8.3572    2.0558    0.2226 F   0  0  0  0  0  0  0  0  0  0  0  0
   -6.2660    1.3615    1.0616 C   0  0  0  0  0  0  0  0  0  0  0  0
   -5.0658    0.7883    0.8875 N   0  0  0  0  0  0  0  0  0  0  0  0
   -0.0757   -0.2319    0.1746 C   0  0  0  0  0  0  0  0  0  0  0  0
    1.2087   -0.7144    0.0360 C   0  0  0  0  0  0  0  0  0  0  0  0
    2.3662    0.1455   -0.3326 C   0  0  2  0  0  0  0  0  0  0  0  0
    2.8786   -0.2666   -1.7186 C   0  0  0  0  0  0  0  0  0  0  0  0
    3.9538    0.5216   -2.0777 F   0  0  0  0  0  0  0  0  0  0  0  0
    3.4346    0.0322    0.7051 C   0  0  0  0  0  0  0  0  0  0  0  0
    4.1812    1.2885    0.9810 C   0  0  1  0  0  0  0  0  0  0  0  0
    5.6882    1.0905    1.0488 C   0  0  0  0  0  0  0  0  0  0  0  0
    6.2521    2.3332    1.3097 F   0  0  0  0  0  0  0  0  0  0  0  0
    6.2146    0.6013   -0.1087 F   0  0  0  0  0  0  0  0  0  0  0  0
    6.0516    0.2629    2.0757 F   0  0  0  0  0  0  0  0  0  0  0  0
    3.8636    2.3477    0.1234 O   0  0  0  0  0  0  0  0  0  0  0  0
    2.5446    2.5421   -0.2801 C   0  0  0  0  0  0  0  0  0  0  0  0
    1.9845    3.8362   -0.4526 N   0  0  0  0  0  0  0  0  0  0  0  0
    1.8463    1.4895   -0.4927 N   0  0  0  0  0  0  0  0  0  0  0  0
    1.3683   -2.0758    0.2637 C   0  0  0  0  0  0  0  0  0  0  0  0
    2.6149   -2.5838    0.1367 F   0  0  0  0  0  0  0  0  0  0  0  0
    0.6387   -4.8016   -0.1764 H   0  0  0  0  0  0  0  0  0  0  0  0
    1.4502   -4.5511    1.3807 H   0  0  0  0  0  0  0  0  0  0  0  0
   -0.3745   -4.7897    1.3114 H   0  0  0  0  0  0  0  0  0  0  0  0
   -1.7986   -3.0362    1.0102 H   0  0  0  0  0  0  0  0  0  0  0  0
   -2.7781   -0.0376    1.5565 H   0  0  0  0  0  0  0  0  0  0  0  0
   -5.2037   -0.0051   -2.3158 H   0  0  0  0  0  0  0  0  0  0  0  0
   -7.4493    1.0562   -2.0324 H   0  0  0  0  0  0  0  0  0  0  0  0
   -6.5120    1.7322    2.0471 H   0  0  0  0  0  0  0  0  0  0  0  0
   -0.2027    0.8475   -0.0059 H   0  0  0  0  0  0  0  0  0  0  0  0
    3.0839   -1.3336   -1.7864 H   0  0  0  0  0  0  0  0  0  0  0  0
    2.0511    0.0075   -2.4250 H   0  0  0  0  0  0  0  0  0  0  0  0
    2.9808   -0.4075    1.6409 H   0  0  0  0  0  0  0  0  0  0  0  0
    4.1686   -0.7385    0.3661 H   0  0  0  0  0  0  0  0  0  0  0  0
    3.8882    1.6244    2.0191 H   0  0  0  0  0  0  0  0  0  0  0  0
    2.0652    4.5917    0.2571 H   0  0  0  0  0  0  0  0  0  0  0  0
    1.4649    4.0544   -1.3269 H   0  0  0  0  0  0  0  0  0  0  0  0
  1  2  1  0
  2  3  2  0
  3  4  1  0
  4  5  1  0
  5  6  1  0
  6  7  2  0
  6  8  1  0
  8  9  2  0
  9 10  1  0
 10 11  2  0
 11 12  1  0
 11 13  1  0
 13 14  2  0
  4 15  2  0
 15 16  1  0
 16 17  1  0
 17 18  1  6
 18 19  1  0
 17 20  1  0
 20 21  1  0
 21 22  1  0
 22 23  1  0
 22 24  1  0
 22 25  1  0
 21 26  1  0
 26 27  1  0
 27 28  1  0
 27 29  2  0
 16 30  2  0
 30 31  1  0
 30  2  1  0
 14  8  1  0
 29 17  1  0
  1 32  1  0
  1 33  1  0
  1 34  1  0
  3 35  1  0
  5 36  1  0
  9 37  1  0
 10 38  1  0
 13 39  1  0
 15 40  1  0
 18 41  1  0
 18 42  1  0
 20 43  1  0
 20 44  1  0
 21 45  1  1
 28 46  1  0
 28 47  1  0
M  END
$$$$
