
     RDKit          3D

 56 58  0  0  0  0  0  0  0  0999 V2000
    5.4293   -2.8593    0.0165 C   0  0  0  0  0  0  0  0  0  0  0  0
    5.9868   -1.6632    0.7629 C   0  0  0  0  0  0  0  0  0  0  0  0
    5.6139   -0.4047    0.1257 N   0  0  0  0  0  0  0  0  0  0  0  0
    6.2143    0.6868    0.8694 C   0  0  0  0  0  0  0  0  0  0  0  0
    5.9163    2.0226    0.2923 C   0  0  0  0  0  0  0  0  0  0  0  0
    4.1796   -0.2703    0.0254 C   0  0  0  0  0  0  0  0  0  0  0  0
    3.4706   -0.0719    1.3133 C   0  0  0  0  0  0  0  0  0  0  0  0
    2.0458    0.0267    1.0872 N   0  0  0  0  0  0  0  0  0  0  0  0
    1.3324    0.9752    0.3161 C   0  0  0  0  0  0  0  0  0  0  0  0
    2.1449    1.7980   -0.1966 O   0  0  0  0  0  0  0  0  0  0  0  0
   -0.0804    1.1142    0.0579 C   0  0  0  0  0  0  0  0  0  0  0  0
   -0.5273    2.0719   -0.8580 C   0  0  0  0  0  0  0  0  0  0  0  0
    0.2406    3.0431   -1.6865 C   0  0  0  0  0  0  0  0  0  0  0  0
   -1.8730    1.9712   -0.8786 N   0  0  0  0  0  0  0  0  0  0  0  0
   -2.3464    1.0087   -0.0357 C   0  0  0  0  0  0  0  0  0  0  0  0
   -3.7751    0.8026    0.0894 C   0  0  0  0  0  0  0  0  0  0  0  0
   -4.5298   -0.2566   -0.0991 C   0  0  0  0  0  0  0  0  0  0  0  0
   -3.9984   -1.5375   -0.5175 C   0  0  0  0  0  0  0  0  0  0  0  0
   -2.8035   -1.8088   -0.7734 O   0  0  0  0  0  0  0  0  0  0  0  0
   -5.1159   -2.4096   -0.5768 N   0  0  0  0  0  0  0  0  0  0  0  0
   -6.2880   -1.6677   -0.2036 C   0  0  0  0  0  0  0  0  0  0  0  0
   -5.9696   -0.3594    0.0920 C   0  0  0  0  0  0  0  0  0  0  0  0
   -6.9560    0.5431    0.4774 C   0  0  0  0  0  0  0  0  0  0  0  0
   -8.2764    0.1470    0.5723 C   0  0  0  0  0  0  0  0  0  0  0  0
   -9.2152    1.0493    0.9505 F   0  0  0  0  0  0  0  0  0  0  0  0
   -8.6072   -1.1764    0.2744 C   0  0  0  0  0  0  0  0  0  0  0  0
   -7.6213   -2.0771   -0.1105 C   0  0  0  0  0  0  0  0  0  0  0  0
   -1.2153    0.4991    0.5288 C   0  0  0  0  0  0  0  0  0  0  0  0
   -1.2178   -0.5526    1.5627 C   0  0  0  0  0  0  0  0  0  0  0  0
    5.2340   -2.5489   -1.0295 H   0  0  0  0  0  0  0  0  0  0  0  0
    6.2318   -3.6469   -0.0822 H   0  0  0  0  0  0  0  0  0  0  0  0
    4.5770   -3.2534    0.5676 H   0  0  0  0  0  0  0  0  0  0  0  0
    7.1050   -1.7083    0.6582 H   0  0  0  0  0  0  0  0  0  0  0  0
    5.7700   -1.7057    1.8308 H   0  0  0  0  0  0  0  0  0  0  0  0
    7.3278    0.5106    0.7986 H   0  0  0  0  0  0  0  0  0  0  0  0
    5.9753    0.6492    1.9425 H   0  0  0  0  0  0  0  0  0  0  0  0
    5.1793    2.0162   -0.5150 H   0  0  0  0  0  0  0  0  0  0  0  0
    5.4794    2.6622    1.1162 H   0  0  0  0  0  0  0  0  0  0  0  0
    6.8406    2.5003   -0.1093 H   0  0  0  0  0  0  0  0  0  0  0  0
    3.7905   -1.2468   -0.3968 H   0  0  0  0  0  0  0  0  0  0  0  0
    3.9284    0.4691   -0.7478 H   0  0  0  0  0  0  0  0  0  0  0  0
    3.7418    0.8852    1.8257 H   0  0  0  0  0  0  0  0  0  0  0  0
    3.6704   -0.9099    1.9936 H   0  0  0  0  0  0  0  0  0  0  0  0
    1.4450   -0.6943    1.5415 H   0  0  0  0  0  0  0  0  0  0  0  0
    0.5156    3.9501   -1.1472 H   0  0  0  0  0  0  0  0  0  0  0  0
    1.1324    2.5614   -2.1334 H   0  0  0  0  0  0  0  0  0  0  0  0
   -0.3982    3.3624   -2.5478 H   0  0  0  0  0  0  0  0  0  0  0  0
   -2.4758    2.5961   -1.5006 H   0  0  0  0  0  0  0  0  0  0  0  0
   -4.3175    1.7081    0.4025 H   0  0  0  0  0  0  0  0  0  0  0  0
   -5.0103   -3.4113   -0.8547 H   0  0  0  0  0  0  0  0  0  0  0  0
   -6.6852    1.5686    0.7060 H   0  0  0  0  0  0  0  0  0  0  0  0
   -9.6520   -1.4244    0.3663 H   0  0  0  0  0  0  0  0  0  0  0  0
   -7.9156   -3.1090   -0.3379 H   0  0  0  0  0  0  0  0  0  0  0  0
   -2.2648   -0.7487    1.9065 H   0  0  0  0  0  0  0  0  0  0  0  0
   -0.6468   -0.1821    2.4461 H   0  0  0  0  0  0  0  0  0  0  0  0
   -0.7358   -1.4942    1.2243 H   0  0  0  0  0  0  0  0  0  0  0  0
  1  2  1  0
  2  3  1  0
  3  4  1  0
  4  5  1  0
  3  6  1  0
  6  7  1  0
  7  8  1  0
  8  9  1  0
  9 10  2  0
  9 11  1  0
 11 12  2  0
 12 13  1  0
 12 14  1  0
 14 15  1  0
 15 16  1  0
 16 17  2  0
 17 18  1  0
 18 19  2  0
 18 20  1  0
 20 21  1  0
 21 22  2  0
 22 23  1  0
 23 24  2  0
 24 25  1  0
 24 26  1  0
 26 27  2  0
 15 28  2  0
 28 29  1  0
 28 11  1  0
 22 17  1  0
 27 21  1  0
  1 30  1  0
  1 31  1  0
  1 32  1  0
  2 33  1  0
  2 34  1  0
  4 35  1  0
  4 36  1  0
  5 37  1  0
  5 38  1  0
  5 39  1  0
  6 40  1  0
  6 41  1  0
  7 42  1  0
  7 43  1  0
  8 44  1  0
 13 45  1  0
 13 46  1  0
 13 47  1  0
 14 48  1  0
 16 49  1  0
 20 50  1  0
 23 51  1  0
 26 52  1  0
 27 53  1  0
 29 54  1  0
 29 55  1  0
 29 56  1  0
M  END
$$$$
