
     RDKit          3D

 53 56  0  0  0  0  0  0  0  0999 V2000
    2.5951   -4.3185    1.4453 C   0  0  0  0  0  0  0  0  0  0  0  0
    2.2749   -3.0591    0.9077 O   0  0  0  0  0  0  0  0  0  0  0  0
    3.2101   -2.1342    0.4811 C   0  0  0  0  0  0  0  0  0  0  0  0
    4.4233   -2.4608    0.5898 O   0  0  0  0  0  0  0  0  0  0  0  0
    2.8734   -0.8756   -0.0557 N   0  0  0  0  0  0  0  0  0  0  0  0
    1.5159   -0.4664   -0.2058 N   0  0  0  0  0  0  0  0  0  0  0  0
    0.8422    0.2081    0.8376 C   0  0  0  0  0  0  0  0  0  0  0  0
    1.5237    0.4384    1.9103 O   0  0  0  0  0  0  0  0  0  0  0  0
   -0.5354    0.6726    0.8240 C   0  0  0  0  0  0  0  0  0  0  0  0
   -1.5927   -0.1020    0.3956 C   0  0  0  0  0  0  0  0  0  0  0  0
   -1.4780   -1.3907   -0.0584 O   0  0  0  0  0  0  0  0  0  0  0  0
   -1.3682   -1.7633   -1.4004 C   0  0  0  0  0  0  0  0  0  0  0  0
   -2.9018    0.3961    0.3963 C   0  0  0  0  0  0  0  0  0  0  0  0
   -4.0256   -0.4305   -0.0617 C   0  0  0  0  0  0  0  0  0  0  0  0
   -5.0071    0.0299   -0.9111 C   0  0  0  0  0  0  0  0  0  0  0  0
   -6.0584   -0.7938   -1.3174 C   0  0  0  0  0  0  0  0  0  0  0  0
   -6.1465   -2.0967   -0.8796 C   0  0  0  0  0  0  0  0  0  0  0  0
   -5.1686   -2.5610   -0.0310 C   0  0  0  0  0  0  0  0  0  0  0  0
   -4.1153   -1.7318    0.3745 C   0  0  0  0  0  0  0  0  0  0  0  0
   -3.1412    1.6384    0.8154 N   0  0  0  0  0  0  0  0  0  0  0  0
   -2.1404    2.4418    1.2452 C   0  0  0  0  0  0  0  0  0  0  0  0
   -2.4571    3.7409    1.6604 C   0  0  0  0  0  0  0  0  0  0  0  0
   -1.4669    4.5621    2.0804 C   0  0  0  0  0  0  0  0  0  0  0  0
   -0.1788    4.1114    2.0918 C   0  0  0  0  0  0  0  0  0  0  0  0
    0.1635    2.8148    1.6811 C   0  0  0  0  0  0  0  0  0  0  0  0
   -0.8437    1.9812    1.2562 C   0  0  0  0  0  0  0  0  0  0  0  0
    3.8519    0.0594   -0.4878 C   0  0  0  0  0  0  0  0  0  0  0  0
    4.2939    0.0466   -1.8122 C   0  0  0  0  0  0  0  0  0  0  0  0
    5.2420    0.9284   -2.2859 C   0  0  0  0  0  0  0  0  0  0  0  0
    5.7971    1.8752   -1.4418 C   0  0  0  0  0  0  0  0  0  0  0  0
    5.3787    1.9063   -0.1382 C   0  0  0  0  0  0  0  0  0  0  0  0
    4.4195    1.0083    0.3258 C   0  0  0  0  0  0  0  0  0  0  0  0
    2.8424   -5.0141    0.6104 H   0  0  0  0  0  0  0  0  0  0  0  0
    3.4365   -4.2523    2.1628 H   0  0  0  0  0  0  0  0  0  0  0  0
    1.6959   -4.7062    1.9933 H   0  0  0  0  0  0  0  0  0  0  0  0
    1.0425   -0.6487   -1.0953 H   0  0  0  0  0  0  0  0  0  0  0  0
   -1.2281   -0.8452   -2.0154 H   0  0  0  0  0  0  0  0  0  0  0  0
   -2.2463   -2.3500   -1.7571 H   0  0  0  0  0  0  0  0  0  0  0  0
   -0.4864   -2.4548   -1.5088 H   0  0  0  0  0  0  0  0  0  0  0  0
   -4.9317    1.0486   -1.2489 H   0  0  0  0  0  0  0  0  0  0  0  0
   -6.8298   -0.4367   -1.9832 H   0  0  0  0  0  0  0  0  0  0  0  0
   -6.9625   -2.7568   -1.1871 H   0  0  0  0  0  0  0  0  0  0  0  0
   -5.2460   -3.5885    0.3088 H   0  0  0  0  0  0  0  0  0  0  0  0
   -3.3894   -2.1487    1.0338 H   0  0  0  0  0  0  0  0  0  0  0  0
   -3.4833    4.0739    1.6419 H   0  0  0  0  0  0  0  0  0  0  0  0
   -1.7392    5.5778    2.4021 H   0  0  0  0  0  0  0  0  0  0  0  0
    0.6158    4.7754    2.4299 H   0  0  0  0  0  0  0  0  0  0  0  0
    1.2148    2.5432    1.7075 H   0  0  0  0  0  0  0  0  0  0  0  0
    3.8801   -0.6764   -2.4864 H   0  0  0  0  0  0  0  0  0  0  0  0
    5.5778    0.9077   -3.3210 H   0  0  0  0  0  0  0  0  0  0  0  0
    6.5467    2.5759   -1.8067 H   0  0  0  0  0  0  0  0  0  0  0  0
    5.7841    2.6296    0.5616 H   0  0  0  0  0  0  0  0  0  0  0  0
    4.1267    1.0707    1.3493 H   0  0  0  0  0  0  0  0  0  0  0  0
  1  2  1  0
  2  3  1  0
  3  4  2  0
  3  5  1  0
  5  6  1  0
  6  7  1  0
  7  8  2  0
  7  9  1  0
  9 10  2  0
 10 11  1  0
 11 12  1  0
 10 13  1  0
 13 14  1  0
 14 15  2  0
 15 16  1  0
 16 17  2  0
 17 18  1  0
 18 19  2  0
 13 20  2  0
 20 21  1  0
 21 22  2  0
 22 23  1  0
 23 24  2  0
 24 25  1  0
 25 26  2  0
  5 27  1  0
 27 28  2  0
 28 29  1  0
 29 30  2  0
 30 31  1  0
 31 32  2  0
 26  9  1  0
 32 27  1  0
 19 14  1  0
 26 21  1  0
  1 33  1  0
  1 34  1  0
  1 35  1  0
  6 36  1  0
 12 37  1  0
 12 38  1  0
 12 39  1  0
 15 40  1  0
 16 41  1  0
 17 42  1  0
 18 43  1  0
 19 44  1  0
 22 45  1  0
 23 46  1  0
 24 47  1  0
 25 48  1  0
 28 49  1  0
 29 50  1  0
 30 51  1  0
 31 52  1  0
 32 53  1  0
M  END
$$$$
