
     RDKit          3D

 81 80  0  0  0  0  0  0  0  0999 V2000
    1.8321   -0.0820    1.0607 O   0  0  0  0  0  0  0  0  0  0  0  0
    1.1835   -0.7281   -0.0027 C   0  0  0  0  0  0  0  0  0  0  0  0
   -0.0920    0.0535   -0.2453 C   0  0  0  0  0  0  0  0  0  0  0  0
    0.2661    1.4178   -0.5831 N   0  0  0  0  0  4  0  0  0  0  0  0
   -0.8714   -0.5054   -1.4009 C   0  0  0  0  0  0  0  0  0  0  0  0
   -1.2858   -1.8032   -1.2304 O   0  0  0  0  0  0  0  0  0  0  0  0
   -0.8853    0.0787    1.0346 C   0  0  0  0  0  0  0  0  0  0  0  0
   -0.0934    0.6370    2.0277 O   0  0  0  0  0  0  0  0  0  0  0  0
   -7.1297    0.9565   -0.5839 C   0  0  0  0  0  0  0  0  0  0  0  0
   -7.2705   -0.1333    0.4292 C   0  0  0  0  0  0  0  0  0  0  0  0
   -6.0475   -0.7420    0.9655 C   0  0  0  0  0  0  0  0  0  0  0  0
   -5.0909   -1.4585    0.1497 C   0  0  0  0  0  0  0  0  0  0  0  0
   -4.3064   -0.9409   -0.9544 C   0  0  0  0  0  0  0  0  0  0  0  0
   -3.3266    0.1444   -0.7813 C   0  0  1  0  0  0  0  0  0  0  0  0
   -2.7592    0.3392   -2.0893 O   0  0  0  0  0  0  0  0  0  0  0  0
   -3.7947    1.4750   -0.3120 C   0  0  0  0  0  0  0  0  0  0  0  0
   -2.1125   -0.2825    0.0143 C   0  0  0  0  0  0  0  0  0  0  0  0
   -0.9573    0.3634   -0.1163 C   0  0  0  0  0  0  0  0  0  0  0  0
    0.3059    0.1105    0.5501 C   0  0  1  0  0  0  0  0  0  0  0  0
    0.4190   -1.0080    1.4900 C   0  0  1  0  0  0  0  0  0  0  0  0
   -0.5415   -1.1745    2.4382 O   0  0  0  0  0  0  0  0  0  0  0  0
    0.6993   -2.2074    0.6166 C   0  0  0  0  0  0  0  0  0  0  0  0
    1.8242   -1.6193   -0.2475 C   0  0  2  0  0  0  0  0  0  0  0  0
    2.9806   -1.5823    0.5467 O   0  0  0  0  0  0  0  0  0  0  0  0
    1.3619   -0.2015   -0.5076 C   0  0  2  0  0  0  0  0  0  0  0  0
    2.4751    0.7784   -0.3420 C   0  0  0  0  0  0  0  0  0  0  0  0
    3.5852    0.6182   -1.2897 C   0  0  0  0  0  0  0  0  0  0  0  0
    4.8948    0.3732   -1.2286 C   0  0  0  0  0  0  0  0  0  0  0  0
    5.6680    0.1706    0.0293 C   0  0  0  0  0  0  0  0  0  0  0  0
    6.7559    1.1779    0.1959 C   0  0  0  0  0  0  0  0  0  0  0  0
    7.7283    1.1014   -0.9435 C   0  0  0  0  0  0  0  0  0  0  0  0
    8.7821    2.1400   -0.6991 C   0  0  0  0  0  0  0  0  0  0  0  0
    8.5575    2.7667    0.3673 O   0  0  0  0  0  0  0  0  0  0  0  0
    9.7788    2.2196   -1.6588 O   0  0  0  0  0  1  0  0  0  0  0  0
    2.8006   -0.3307    0.9734 H   0  0  0  0  0  0  0  0  0  0  0  0
    1.8586   -0.6967   -0.8846 H   0  0  0  0  0  0  0  0  0  0  0  0
    0.9759   -1.7588    0.3440 H   0  0  0  0  0  0  0  0  0  0  0  0
    1.3019    1.5588   -0.5878 H   0  0  0  0  0  0  0  0  0  0  0  0
   -0.1530    1.7427   -1.4957 H   0  0  0  0  0  0  0  0  0  0  0  0
   -0.0928    2.1038    0.1196 H   0  0  0  0  0  0  0  0  0  0  0  0
   -1.7392    0.1771   -1.5735 H   0  0  0  0  0  0  0  0  0  0  0  0
   -0.2050   -0.4672   -2.2913 H   0  0  0  0  0  0  0  0  0  0  0  0
   -1.1892   -2.1511   -0.3208 H   0  0  0  0  0  0  0  0  0  0  0  0
   -1.7227    0.7784    0.8886 H   0  0  0  0  0  0  0  0  0  0  0  0
   -1.2019   -0.9234    1.3665 H   0  0  0  0  0  0  0  0  0  0  0  0
   -0.6869    0.8987    2.8010 H   0  0  0  0  0  0  0  0  0  0  0  0
   -6.6391    1.8351   -0.0639 H   0  0  0  0  0  0  0  0  0  0  0  0
   -6.5251    0.7357   -1.4656 H   0  0  0  0  0  0  0  0  0  0  0  0
   -8.1561    1.3099   -0.8703 H   0  0  0  0  0  0  0  0  0  0  0  0
   -8.0381   -0.8931    0.0980 H   0  0  0  0  0  0  0  0  0  0  0  0
   -7.8222    0.3657    1.2964 H   0  0  0  0  0  0  0  0  0  0  0  0
   -6.4138   -1.5240    1.7473 H   0  0  0  0  0  0  0  0  0  0  0  0
   -5.5874    0.0085    1.6888 H   0  0  0  0  0  0  0  0  0  0  0  0
   -5.6303   -2.4116   -0.2376 H   0  0  0  0  0  0  0  0  0  0  0  0
   -4.3473   -1.9651    0.8745 H   0  0  0  0  0  0  0  0  0  0  0  0
   -4.8661   -0.7668   -1.9251 H   0  0  0  0  0  0  0  0  0  0  0  0
   -3.6496   -1.8441   -1.2987 H   0  0  0  0  0  0  0  0  0  0  0  0
   -2.5148   -0.5887   -2.3424 H   0  0  0  0  0  0  0  0  0  0  0  0
   -4.4772    1.9108   -1.0710 H   0  0  0  0  0  0  0  0  0  0  0  0
   -2.8651    2.1421   -0.3494 H   0  0  0  0  0  0  0  0  0  0  0  0
   -4.1247    1.5015    0.7160 H   0  0  0  0  0  0  0  0  0  0  0  0
   -2.1045   -1.0944    0.7022 H   0  0  0  0  0  0  0  0  0  0  0  0
   -0.8706    1.2194   -0.8075 H   0  0  0  0  0  0  0  0  0  0  0  0
    0.5609    1.0535    1.1176 H   0  0  0  0  0  0  0  0  0  0  0  0
    1.3833   -0.8497    2.0578 H   0  0  0  0  0  0  0  0  0  0  0  0
   -0.3892   -0.7725    3.3156 H   0  0  0  0  0  0  0  0  0  0  0  0
    1.1528   -3.0015    1.2312 H   0  0  0  0  0  0  0  0  0  0  0  0
   -0.1473   -2.5268   -0.0002 H   0  0  0  0  0  0  0  0  0  0  0  0
    2.0183   -2.2044   -1.1500 H   0  0  0  0  0  0  0  0  0  0  0  0
    2.9340   -2.2845    1.2540 H   0  0  0  0  0  0  0  0  0  0  0  0
    0.9278   -0.1634   -1.5319 H   0  0  0  0  0  0  0  0  0  0  0  0
    2.1117    1.8060   -0.3443 H   0  0  0  0  0  0  0  0  0  0  0  0
    2.9062    0.5893    0.6838 H   0  0  0  0  0  0  0  0  0  0  0  0
    3.1052    0.7537   -2.2758 H   0  0  0  0  0  0  0  0  0  0  0  0
    5.4237    0.3198   -2.1637 H   0  0  0  0  0  0  0  0  0  0  0  0
    6.0929   -0.8464    0.0819 H   0  0  0  0  0  0  0  0  0  0  0  0
    4.9882    0.2804    0.9212 H   0  0  0  0  0  0  0  0  0  0  0  0
    6.3479    2.1992    0.3306 H   0  0  0  0  0  0  0  0  0  0  0  0
    7.2908    0.9140    1.1457 H   0  0  0  0  0  0  0  0  0  0  0  0
    8.2454    0.1208   -0.9099 H   0  0  0  0  0  0  0  0  0  0  0  0
    7.1998    1.2872   -1.8968 H   0  0  0  0  0  0  0  0  0  0  0  0
  1  2  1  0
  2  3  1  0
  3  4  1  0
  3  5  1  0
  5  6  1  0
  3  7  1  0
  7  8  1  0
  9 10  1  0
 10 11  1  0
 11 12  1  0
 12 13  1  0
 13 14  1  0
 14 15  1  6
 14 16  1  0
 14 17  1  0
 17 18  2  0
 18 19  1  0
 19 20  1  0
 20 21  1  0
 20 22  1  0
 22 23  1  0
 23 24  1  0
 23 25  1  0
 25 26  1  0
 26 27  1  0
 27 28  2  0
 28 29  1  0
 29 30  1  0
 30 31  1  0
 31 32  1  0
 32 33  2  0
 32 34  1  0
 25 19  1  0
  1 35  1  0
  2 36  1  0
  2 37  1  0
  4 38  1  0
  4 39  1  0
  4 40  1  0
  5 41  1  0
  5 42  1  0
  6 43  1  0
  7 44  1  0
  7 45  1  0
  8 46  1  0
  9 47  1  0
  9 48  1  0
  9 49  1  0
 10 50  1  0
 10 51  1  0
 11 52  1  0
 11 53  1  0
 12 54  1  0
 12 55  1  0
 13 56  1  0
 13 57  1  0
 15 58  1  0
 16 59  1  0
 16 60  1  0
 16 61  1  0
 17 62  1  0
 18 63  1  0
 19 64  1  1
 20 65  1  1
 21 66  1  0
 22 67  1  0
 22 68  1  0
 23 69  1  6
 24 70  1  0
 25 71  1  6
 26 72  1  0
 26 73  1  0
 27 74  1  0
 28 75  1  0
 29 76  1  0
 29 77  1  0
 30 78  1  0
 30 79  1  0
 31 80  1  0
 31 81  1  0
M  CHG  2   4   1  34  -1
M  END
$$$$
