
     RDKit          3D

 41 42  0  0  0  0  0  0  0  0999 V2000
   -4.5117    2.6002   -0.3413 C   0  0  0  0  0  0  0  0  0  0  0  0
   -4.1369    1.2558   -0.0623 O   0  0  0  0  0  0  0  0  0  0  0  0
   -2.8421    1.0051    0.2957 C   0  0  0  0  0  0  0  0  0  0  0  0
   -2.4674   -0.2945    0.5675 C   0  0  0  0  0  0  0  0  0  0  0  0
   -3.4130   -1.3125    0.4715 O   0  0  0  0  0  0  0  0  0  0  0  0
   -3.6650   -2.0134   -0.7215 C   0  0  0  0  0  0  0  0  0  0  0  0
   -1.1374   -0.5359    0.9327 C   0  0  0  0  0  0  0  0  0  0  0  0
   -0.7244   -1.8286    1.2130 O   0  0  0  0  0  0  0  0  0  0  0  0
   -0.2065   -2.7452    0.3011 C   0  0  0  0  0  0  0  0  0  0  0  0
   -0.2348    0.5155    1.0140 C   0  0  0  0  0  0  0  0  0  0  0  0
    1.1640    0.2000    1.4081 C   0  0  0  0  0  0  0  0  0  0  0  0
    1.9570   -0.3902    0.3853 N   0  0  0  0  0  0  0  0  0  0  0  0
    3.3003   -0.6929    0.7793 C   0  0  0  0  0  0  0  0  0  0  0  0
    4.1215   -0.9659   -0.4626 C   0  0  0  0  0  0  0  0  0  0  0  0
    4.3572    0.2665   -1.2116 N   0  0  0  0  0  0  0  0  0  0  0  0
    3.1740    1.1088   -1.1295 C   0  0  0  0  0  0  0  0  0  0  0  0
    1.9410    0.2774   -0.8688 C   0  0  0  0  0  0  0  0  0  0  0  0
   -0.6468    1.7900    0.7363 C   0  0  0  0  0  0  0  0  0  0  0  0
   -1.9599    2.0762    0.3691 C   0  0  0  0  0  0  0  0  0  0  0  0
   -4.2235    3.1817    0.5719 H   0  0  0  0  0  0  0  0  0  0  0  0
   -3.8559    2.9585   -1.1563 H   0  0  0  0  0  0  0  0  0  0  0  0
   -5.5935    2.6962   -0.5578 H   0  0  0  0  0  0  0  0  0  0  0  0
   -4.6856   -2.4421   -0.7487 H   0  0  0  0  0  0  0  0  0  0  0  0
   -3.5504   -1.2835   -1.5716 H   0  0  0  0  0  0  0  0  0  0  0  0
   -2.8644   -2.7717   -0.8380 H   0  0  0  0  0  0  0  0  0  0  0  0
    0.8737   -2.9684    0.4540 H   0  0  0  0  0  0  0  0  0  0  0  0
   -0.8248   -3.6814    0.3985 H   0  0  0  0  0  0  0  0  0  0  0  0
   -0.2931   -2.4234   -0.7608 H   0  0  0  0  0  0  0  0  0  0  0  0
    1.1782   -0.5295    2.2710 H   0  0  0  0  0  0  0  0  0  0  0  0
    1.7089    1.1013    1.8011 H   0  0  0  0  0  0  0  0  0  0  0  0
    3.3607   -1.6234    1.4078 H   0  0  0  0  0  0  0  0  0  0  0  0
    3.7762    0.0891    1.3990 H   0  0  0  0  0  0  0  0  0  0  0  0
    3.5080   -1.6258   -1.1099 H   0  0  0  0  0  0  0  0  0  0  0  0
    5.0821   -1.4726   -0.2158 H   0  0  0  0  0  0  0  0  0  0  0  0
    5.1609    0.7955   -0.7864 H   0  0  0  0  0  0  0  0  0  0  0  0
    3.3054    1.9132   -0.3734 H   0  0  0  0  0  0  0  0  0  0  0  0
    3.0663    1.6094   -2.1119 H   0  0  0  0  0  0  0  0  0  0  0  0
    1.9069   -0.4968   -1.6754 H   0  0  0  0  0  0  0  0  0  0  0  0
    1.0666    0.9357   -1.0304 H   0  0  0  0  0  0  0  0  0  0  0  0
    0.0561    2.6190    0.7971 H   0  0  0  0  0  0  0  0  0  0  0  0
   -2.2277    3.1027    0.1600 H   0  0  0  0  0  0  0  0  0  0  0  0
  1  2  1  0
  2  3  1  0
  3  4  2  0
  4  5  1  0
  5  6  1  0
  4  7  1  0
  7  8  1  0
  8  9  1  0
  7 10  2  0
 10 11  1  0
 11 12  1  0
 12 13  1  0
 13 14  1  0
 14 15  1  0
 15 16  1  0
 16 17  1  0
 10 18  1  0
 18 19  2  0
 19  3  1  0
 17 12  1  0
  1 20  1  0
  1 21  1  0
  1 22  1  0
  6 23  1  0
  6 24  1  0
  6 25  1  0
  9 26  1  0
  9 27  1  0
  9 28  1  0
 11 29  1  0
 11 30  1  0
 13 31  1  0
 13 32  1  0
 14 33  1  0
 14 34  1  0
 15 35  1  0
 16 36  1  0
 16 37  1  0
 17 38  1  0
 17 39  1  0
 18 40  1  0
 19 41  1  0
M  END
$$$$
