
     RDKit          3D

 39 40  0  0  0  0  0  0  0  0999 V2000
   -3.1569    3.1483   -2.5556 C   0  0  0  0  0  0  0  0  0  0  0  0
   -2.8205    1.9576   -1.8701 O   0  0  0  0  0  0  0  0  0  0  0  0
   -3.6934    1.2094   -1.1623 N   0  0  0  0  0  0  0  0  0  0  0  0
   -3.2822    0.4591   -0.2081 C   0  0  0  0  0  0  0  0  0  0  0  0
   -1.8628    0.4251    0.1010 C   0  0  0  0  0  0  0  0  0  0  0  0
   -1.0088    1.1015   -0.5267 O   0  0  0  0  0  0  0  0  0  0  0  0
   -1.3608   -0.3980    1.1575 N   0  0  0  0  0  0  0  0  0  0  0  0
    0.0555   -0.4247    1.4575 C   0  0  0  0  0  0  0  0  0  0  0  0
    1.0284   -0.9830    0.0369 P   0  0  0  0  0  5  0  0  0  0  0  0
    0.0513   -1.3678   -1.0616 O   0  0  0  0  0  0  0  0  0  0  0  0
    1.8371   -2.3906    0.4951 O   0  0  0  0  0  0  0  0  0  0  0  0
    2.0542    0.2095   -0.5739 O   0  0  0  0  0  0  0  0  0  0  0  0
    3.4278    0.1704   -0.5614 C   0  0  0  0  0  0  0  0  0  0  0  0
    4.0965    1.3709   -0.3793 C   0  0  0  0  0  0  0  0  0  0  0  0
    5.4651    1.4064   -0.3561 C   0  0  0  0  0  0  0  0  0  0  0  0
    6.2312    0.2588   -0.5114 C   0  0  0  0  0  0  0  0  0  0  0  0
    7.6416    0.3908   -0.4737 C   0  0  0  0  0  0  0  0  0  0  0  0
    8.7959    0.5064   -0.4241 N   0  0  0  0  0  0  0  0  0  0  0  0
    5.5817   -0.9424   -0.6933 C   0  0  0  0  0  0  0  0  0  0  0  0
    6.3168   -2.0649   -0.8454 F   0  0  0  0  0  0  0  0  0  0  0  0
    4.1880   -0.9560   -0.7137 C   0  0  0  0  0  0  0  0  0  0  0  0
   -4.2419   -0.3261    0.5265 C   0  0  0  0  0  0  0  0  0  0  0  0
   -4.7326   -1.5808    0.3121 C   0  0  0  0  0  0  0  0  0  0  0  0
   -5.6277   -2.0935    1.1489 C   0  0  0  0  0  0  0  0  0  0  0  0
   -6.0528   -1.3653    2.2182 C   0  0  0  0  0  0  0  0  0  0  0  0
   -5.0980    0.1888    2.0219 S   0  0  0  0  0  0  0  0  0  0  0  0
   -4.0304    2.9735   -3.2433 H   0  0  0  0  0  0  0  0  0  0  0  0
   -2.2545    3.4736   -3.1130 H   0  0  0  0  0  0  0  0  0  0  0  0
   -3.4405    3.9651   -1.8915 H   0  0  0  0  0  0  0  0  0  0  0  0
   -2.0081   -0.9874    1.7228 H   0  0  0  0  0  0  0  0  0  0  0  0
    0.2484   -1.0092    2.3599 H   0  0  0  0  0  0  0  0  0  0  0  0
    0.3767    0.6339    1.6580 H   0  0  0  0  0  0  0  0  0  0  0  0
    1.1821   -2.9288    1.0266 H   0  0  0  0  0  0  0  0  0  0  0  0
    3.5599    2.2924   -0.2536 H   0  0  0  0  0  0  0  0  0  0  0  0
    5.9707    2.3726   -0.2100 H   0  0  0  0  0  0  0  0  0  0  0  0
    3.6802   -1.9011   -0.8567 H   0  0  0  0  0  0  0  0  0  0  0  0
   -4.3323   -2.1292   -0.5997 H   0  0  0  0  0  0  0  0  0  0  0  0
   -6.0496   -3.1189    1.0016 H   0  0  0  0  0  0  0  0  0  0  0  0
   -6.7351   -1.5463    3.0012 H   0  0  0  0  0  0  0  0  0  0  0  0
  1  2  1  0
  2  3  1  0
  3  4  2  3
  4  5  1  0
  5  6  2  0
  5  7  1  0
  7  8  1  0
  8  9  1  0
  9 10  2  0
  9 11  1  0
  9 12  1  0
 12 13  1  0
 13 14  2  0
 14 15  1  0
 15 16  2  0
 16 17  1  0
 17 18  3  0
 16 19  1  0
 19 20  1  0
 19 21  2  0
  4 22  1  0
 22 23  2  0
 23 24  1  0
 24 25  2  0
 25 26  1  0
 21 13  1  0
 26 22  1  0
  1 27  1  0
  1 28  1  0
  1 29  1  0
  7 30  1  0
  8 31  1  0
  8 32  1  0
 11 33  1  0
 14 34  1  0
 15 35  1  0
 21 36  1  0
 23 37  1  0
 24 38  1  0
 25 39  1  0
M  END
$$$$
