
     RDKit          3D

 76 79  0  0  0  0  0  0  0  0999 V2000
   -8.3950   -3.7101   -1.3692 C   0  0  0  0  0  0  0  0  0  0  0  0
   -8.1910   -2.2369   -1.1329 C   0  0  0  0  0  0  0  0  0  0  0  0
   -7.2011   -1.7868   -0.2921 C   0  0  0  0  0  0  0  0  0  0  0  0
   -6.9876   -0.4489   -0.0534 C   0  0  0  0  0  0  0  0  0  0  0  0
   -5.9222   -0.0165    0.8481 C   0  0  0  0  0  0  0  0  0  0  0  0
   -4.8569    0.4738    0.0699 O   0  0  0  0  0  0  0  0  0  0  0  0
   -3.6772    0.9655    0.5414 C   0  0  0  0  0  0  0  0  0  0  0  0
   -2.7379    1.4094   -0.3747 C   0  0  0  0  0  0  0  0  0  0  0  0
   -1.5354    1.9119    0.0653 C   0  0  0  0  0  0  0  0  0  0  0  0
   -1.2122    1.9973    1.4018 C   0  0  0  0  0  0  0  0  0  0  0  0
    0.3094    2.6407    1.9139 S   0  0  0  0  0  6  0  0  0  0  0  0
    0.1189    3.5672    3.0868 O   0  0  0  0  0  0  0  0  0  0  0  0
    0.8238    3.5207    0.7773 O   0  0  0  0  0  0  0  0  0  0  0  0
    1.5284    1.4447    2.2373 C   0  0  0  0  0  0  0  0  0  0  0  0
    1.9387    0.5815    1.0949 C   0  0  0  0  0  0  0  0  0  0  0  0
    3.0009   -0.3820    1.5960 C   0  0  0  0  0  0  0  0  0  0  0  0
    4.1552   -0.5124    0.9209 C   0  0  0  0  0  0  0  0  0  0  0  0
    4.4597    0.2318   -0.2951 C   0  0  0  0  0  0  0  0  0  0  0  0
    5.6043   -0.2820   -1.1036 C   0  0  0  0  0  0  0  0  0  0  0  0
    6.5063   -1.1566   -0.4891 N   0  0  0  0  0  0  0  0  0  0  0  0
    7.7521   -0.7280   -0.0143 C   0  0  0  0  0  0  0  0  0  0  0  0
    8.8070   -0.3423   -0.9862 C   0  0  0  0  0  0  0  0  0  0  0  0
    9.1662   -1.4853   -1.9251 C   0  0  0  0  0  0  0  0  0  0  0  0
    8.6240    0.9032   -1.7612 C   0  0  0  0  0  0  0  0  0  0  0  0
    5.8417   -2.1449    0.3139 C   0  0  0  0  0  0  0  0  0  0  0  0
    5.1709   -1.4729    1.4780 C   0  0  0  0  0  0  0  0  0  0  0  0
    0.9232   -0.2216    0.4921 N   0  0  0  0  0  0  0  0  0  0  0  0
    0.7015   -0.1455   -0.8324 O   0  0  0  0  0  0  0  0  0  0  0  0
    0.1623   -1.1167    1.2668 C   0  0  0  0  0  0  0  0  0  0  0  0
    0.3282   -1.2641    2.5095 O   0  0  0  0  0  0  0  0  0  0  0  0
   -2.1678    1.5468    2.3085 C   0  0  0  0  0  0  0  0  0  0  0  0
   -3.3747    1.0414    1.8918 C   0  0  0  0  0  0  0  0  0  0  0  0
   -7.8144    0.4444   -0.6971 C   0  0  0  0  0  0  0  0  0  0  0  0
   -7.6667    1.7818   -0.5140 C   0  0  0  0  0  0  0  0  0  0  0  0
   -8.4946    2.7033   -1.1578 C   0  0  0  0  0  0  0  0  0  0  0  0
   -9.4984    2.2725   -2.0092 C   0  0  0  0  0  0  0  0  0  0  0  0
   -9.6369    0.9044   -2.1863 C   0  0  0  0  0  0  0  0  0  0  0  0
   -8.8154    0.0043   -1.5467 C   0  0  0  0  0  0  0  0  0  0  0  0
   -8.9708   -1.3245   -1.7368 N   0  0  0  0  0  0  0  0  0  0  0  0
   -8.3527   -4.2734   -0.4035 H   0  0  0  0  0  0  0  0  0  0  0  0
   -7.6037   -4.1327   -2.0152 H   0  0  0  0  0  0  0  0  0  0  0  0
   -9.4099   -3.8277   -1.7960 H   0  0  0  0  0  0  0  0  0  0  0  0
   -6.5800   -2.5504    0.1874 H   0  0  0  0  0  0  0  0  0  0  0  0
   -5.5295   -0.9065    1.3913 H   0  0  0  0  0  0  0  0  0  0  0  0
   -6.2476    0.6903    1.6345 H   0  0  0  0  0  0  0  0  0  0  0  0
   -2.9746    1.3500   -1.4387 H   0  0  0  0  0  0  0  0  0  0  0  0
   -0.8235    2.2503   -0.6937 H   0  0  0  0  0  0  0  0  0  0  0  0
    2.4569    1.9921    2.6013 H   0  0  0  0  0  0  0  0  0  0  0  0
    1.2569    0.7701    3.1010 H   0  0  0  0  0  0  0  0  0  0  0  0
    2.4336    1.2513    0.3505 H   0  0  0  0  0  0  0  0  0  0  0  0
    2.8175   -0.9561    2.4928 H   0  0  0  0  0  0  0  0  0  0  0  0
    4.6329    1.3065   -0.0343 H   0  0  0  0  0  0  0  0  0  0  0  0
    3.5414    0.2012   -0.9341 H   0  0  0  0  0  0  0  0  0  0  0  0
    6.1517    0.5941   -1.5450 H   0  0  0  0  0  0  0  0  0  0  0  0
    5.1790   -0.8374   -2.0051 H   0  0  0  0  0  0  0  0  0  0  0  0
    8.1961   -1.5905    0.5872 H   0  0  0  0  0  0  0  0  0  0  0  0
    7.6623    0.1310    0.7284 H   0  0  0  0  0  0  0  0  0  0  0  0
    9.7623   -0.1798   -0.3663 H   0  0  0  0  0  0  0  0  0  0  0  0
    8.4518   -1.4795   -2.7693 H   0  0  0  0  0  0  0  0  0  0  0  0
    9.1608   -2.4475   -1.4039 H   0  0  0  0  0  0  0  0  0  0  0  0
   10.1709   -1.2676   -2.3536 H   0  0  0  0  0  0  0  0  0  0  0  0
    9.6651    1.2728   -2.0305 H   0  0  0  0  0  0  0  0  0  0  0  0
    8.1687    1.7336   -1.1954 H   0  0  0  0  0  0  0  0  0  0  0  0
    8.1349    0.7910   -2.7542 H   0  0  0  0  0  0  0  0  0  0  0  0
    6.5108   -2.9592    0.6499 H   0  0  0  0  0  0  0  0  0  0  0  0
    5.0442   -2.5963   -0.3224 H   0  0  0  0  0  0  0  0  0  0  0  0
    5.8740   -0.8568    2.0725 H   0  0  0  0  0  0  0  0  0  0  0  0
    4.7112   -2.2071    2.1572 H   0  0  0  0  0  0  0  0  0  0  0  0
    1.3074   -0.8014   -1.2634 H   0  0  0  0  0  0  0  0  0  0  0  0
   -0.6207   -1.7422    0.8444 H   0  0  0  0  0  0  0  0  0  0  0  0
   -1.9382    1.6038    3.3623 H   0  0  0  0  0  0  0  0  0  0  0  0
   -4.1026    0.6959    2.6367 H   0  0  0  0  0  0  0  0  0  0  0  0
   -6.9055    2.1439    0.1334 H   0  0  0  0  0  0  0  0  0  0  0  0
   -8.3930    3.7673   -1.0255 H   0  0  0  0  0  0  0  0  0  0  0  0
  -10.1621    2.9818   -2.5264 H   0  0  0  0  0  0  0  0  0  0  0  0
  -10.4136    0.5160   -2.8472 H   0  0  0  0  0  0  0  0  0  0  0  0
  1  2  1  0
  2  3  2  0
  3  4  1  0
  4  5  1  0
  5  6  1  0
  6  7  1  0
  7  8  2  0
  8  9  1  0
  9 10  2  0
 10 11  1  0
 11 12  2  0
 11 13  2  0
 11 14  1  0
 14 15  1  0
 15 16  1  0
 16 17  2  3
 17 18  1  0
 18 19  1  0
 19 20  1  0
 20 21  1  0
 21 22  1  0
 22 23  1  0
 22 24  1  0
 20 25  1  0
 25 26  1  0
 15 27  1  0
 27 28  1  0
 27 29  1  0
 29 30  2  0
 10 31  1  0
 31 32  2  0
  4 33  2  0
 33 34  1  0
 34 35  2  0
 35 36  1  0
 36 37  2  0
 37 38  1  0
 38 39  2  0
 39  2  1  0
 32  7  1  0
 38 33  1  0
 26 17  1  0
  1 40  1  0
  1 41  1  0
  1 42  1  0
  3 43  1  0
  5 44  1  0
  5 45  1  0
  8 46  1  0
  9 47  1  0
 14 48  1  0
 14 49  1  0
 15 50  1  0
 16 51  1  0
 18 52  1  0
 18 53  1  0
 19 54  1  0
 19 55  1  0
 21 56  1  0
 21 57  1  0
 22 58  1  0
 23 59  1  0
 23 60  1  0
 23 61  1  0
 24 62  1  0
 24 63  1  0
 24 64  1  0
 25 65  1  0
 25 66  1  0
 26 67  1  0
 26 68  1  0
 28 69  1  0
 29 70  1  0
 31 71  1  0
 32 72  1  0
 34 73  1  0
 35 74  1  0
 36 75  1  0
 37 76  1  0
M  END
$$$$
