
     RDKit          3D

 51 55  0  0  0  0  0  0  0  0999 V2000
    5.6788   -1.8754   -2.0519 N   0  0  0  0  0  0  0  0  0  0  0  0
    4.4182   -1.4078   -1.5614 C   0  0  0  0  0  0  0  0  0  0  0  0
    3.4369   -1.2883   -2.2984 O   0  0  0  0  0  0  0  0  0  0  0  0
    4.3205   -1.0704   -0.1452 C   0  0  0  0  0  0  0  0  0  0  0  0
    5.3649   -1.1681    0.7867 C   0  0  0  0  0  0  0  0  0  0  0  0
    4.8469   -0.7647    1.9483 N   0  0  0  0  0  0  0  0  0  0  0  0
    3.5522   -0.4308    1.7662 C   0  0  0  0  0  0  0  0  0  0  0  0
    2.5836    0.0445    2.6621 C   0  0  0  0  0  0  0  0  0  0  0  0
    1.3337    0.3012    2.1865 C   0  0  0  0  0  0  0  0  0  0  0  0
    0.9715    0.1181    0.8699 C   0  0  0  0  0  0  0  0  0  0  0  0
   -0.3690    0.4039    0.3746 C   0  0  0  0  0  0  0  0  0  0  0  0
   -0.9677    1.6293    0.1777 C   0  0  0  0  0  0  0  0  0  0  0  0
   -0.4045    2.9504    0.4125 C   0  0  0  0  0  0  0  0  0  0  0  0
   -0.1411    3.4244    1.6728 C   0  0  0  0  0  0  0  0  0  0  0  0
    0.3987    4.6764    1.9040 C   0  0  0  0  0  0  0  0  0  0  0  0
    0.6900    5.4947    0.8375 C   0  0  0  0  0  0  0  0  0  0  0  0
    1.2157    6.7146    1.0557 F   0  0  0  0  0  0  0  0  0  0  0  0
    0.4354    5.0461   -0.4576 C   0  0  0  0  0  0  0  0  0  0  0  0
   -0.1088    3.7784   -0.6482 C   0  0  0  0  0  0  0  0  0  0  0  0
   -2.2150    1.3504   -0.2906 N   0  0  0  0  0  0  0  0  0  0  0  0
   -2.4091    0.0284   -0.3897 C   0  0  0  0  0  0  0  0  0  0  0  0
   -1.2785   -0.5511    0.0177 N   0  0  0  0  0  0  0  0  0  0  0  0
   -1.1449   -1.9857    0.0367 C   0  0  0  0  0  0  0  0  0  0  0  0
   -2.0210   -2.5112   -1.0821 C   0  0  0  0  0  0  0  0  0  0  0  0
   -3.3868   -2.1285   -0.7812 N   0  0  0  0  0  0  0  0  0  0  0  0
   -4.3514   -2.9521   -1.4055 C   0  0  0  0  0  0  0  0  0  0  0  0
   -5.7460   -2.5271   -1.0324 C   0  0  0  0  0  0  0  0  0  0  0  0
   -6.6468   -3.3892   -1.6600 F   0  0  0  0  0  0  0  0  0  0  0  0
   -5.9661   -1.2744   -1.6237 F   0  0  0  0  0  0  0  0  0  0  0  0
   -3.6244   -0.7399   -0.8539 C   0  0  0  0  0  0  0  0  0  0  0  0
    1.9599   -0.3514    0.0275 C   0  0  0  0  0  0  0  0  0  0  0  0
    3.2227   -0.6165    0.4823 N   0  0  0  0  0  0  0  0  0  0  0  0
    6.3007   -2.5154   -1.5171 H   0  0  0  0  0  0  0  0  0  0  0  0
    6.0220   -1.5792   -2.9888 H   0  0  0  0  0  0  0  0  0  0  0  0
    6.3702   -1.5098    0.5513 H   0  0  0  0  0  0  0  0  0  0  0  0
    2.8557    0.1932    3.7002 H   0  0  0  0  0  0  0  0  0  0  0  0
    0.5750    0.6630    2.8650 H   0  0  0  0  0  0  0  0  0  0  0  0
   -0.3606    2.8137    2.5285 H   0  0  0  0  0  0  0  0  0  0  0  0
    0.6079    5.0525    2.8954 H   0  0  0  0  0  0  0  0  0  0  0  0
    0.6514    5.6605   -1.3086 H   0  0  0  0  0  0  0  0  0  0  0  0
   -0.2874    3.4768   -1.6722 H   0  0  0  0  0  0  0  0  0  0  0  0
   -1.5353   -2.4181    0.9768 H   0  0  0  0  0  0  0  0  0  0  0  0
   -0.1175   -2.3176   -0.1803 H   0  0  0  0  0  0  0  0  0  0  0  0
   -1.9819   -3.6186   -1.0276 H   0  0  0  0  0  0  0  0  0  0  0  0
   -1.6833   -2.2180   -2.0802 H   0  0  0  0  0  0  0  0  0  0  0  0
   -4.2759   -2.7691   -2.5219 H   0  0  0  0  0  0  0  0  0  0  0  0
   -4.1906   -4.0416   -1.2474 H   0  0  0  0  0  0  0  0  0  0  0  0
   -5.9162   -2.4400    0.0538 H   0  0  0  0  0  0  0  0  0  0  0  0
   -3.9341   -0.3562   -1.8480 H   0  0  0  0  0  0  0  0  0  0  0  0
   -4.4759   -0.4901   -0.1528 H   0  0  0  0  0  0  0  0  0  0  0  0
    1.7275   -0.5141   -1.0238 H   0  0  0  0  0  0  0  0  0  0  0  0
  1  2  1  0
  2  3  2  0
  2  4  1  0
  4  5  2  0
  5  6  1  0
  6  7  2  0
  7  8  1  0
  8  9  2  0
  9 10  1  0
 10 11  1  0
 11 12  2  0
 12 13  1  0
 13 14  2  0
 14 15  1  0
 15 16  2  0
 16 17  1  0
 16 18  1  0
 18 19  2  0
 12 20  1  0
 20 21  2  0
 21 22  1  0
 22 23  1  0
 23 24  1  0
 24 25  1  0
 25 26  1  0
 26 27  1  0
 27 28  1  0
 27 29  1  0
 25 30  1  0
 10 31  2  0
 31 32  1  0
 32  4  1  0
 32  7  1  0
 22 11  1  0
 19 13  1  0
 30 21  1  0
  1 33  1  0
  1 34  1  0
  5 35  1  0
  8 36  1  0
  9 37  1  0
 14 38  1  0
 15 39  1  0
 18 40  1  0
 19 41  1  0
 23 42  1  0
 23 43  1  0
 24 44  1  0
 24 45  1  0
 26 46  1  0
 26 47  1  0
 27 48  1  0
 30 49  1  0
 30 50  1  0
 31 51  1  0
M  END
$$$$
