
     RDKit          3D

 42 44  0  0  0  0  0  0  0  0999 V2000
   -1.3092    3.1838   -1.2073 C   0  0  0  0  0  0  0  0  0  0  0  0
   -2.1109    2.1465   -0.6443 N   0  0  0  0  0  0  0  0  0  0  0  0
   -1.5133    0.8223   -0.8317 C   0  0  1  0  0  0  0  0  0  0  0  0
   -0.1759    0.8623   -0.1441 C   0  0  0  0  0  0  0  0  0  0  0  0
    0.7005   -0.2037   -0.5542 N   0  0  0  0  0  0  0  0  0  0  0  0
    2.1053   -0.2001   -0.6339 C   0  0  0  0  0  0  0  0  0  0  0  0
    2.8626   -0.5809    0.4606 C   0  0  0  0  0  0  0  0  0  0  0  0
    4.2420   -0.5894    0.4180 C   0  0  0  0  0  0  0  0  0  0  0  0
    4.9229   -0.9854    1.5613 O   0  0  0  0  0  0  0  0  0  0  0  0
    6.3306   -1.0122    1.5717 C   0  0  0  0  0  0  0  0  0  0  0  0
    4.8462   -0.2008   -0.7667 C   0  0  0  0  0  0  0  0  0  0  0  0
    4.1035    0.1830   -1.8710 C   0  0  0  0  0  0  0  0  0  0  0  0
    2.7111    0.1876   -1.8160 C   0  0  0  0  0  0  0  0  0  0  0  0
   -0.1628   -1.6358   -0.9875 S   0  0  0  0  0  0  0  0  0  0  0  0
   -0.2416   -1.8057   -2.4760 O   0  0  0  0  0  0  0  0  0  0  0  0
    0.5310   -2.7781   -0.3315 O   0  0  0  0  0  0  0  0  0  0  0  0
   -1.7570   -1.4539   -0.2982 C   0  0  0  0  0  0  0  0  0  0  0  0
   -2.3737   -0.2353   -0.2449 C   0  0  0  0  0  0  0  0  0  0  0  0
   -3.6239   -0.1490    0.3061 C   0  0  0  0  0  0  0  0  0  0  0  0
   -4.1788   -1.3443    0.7799 C   0  0  0  0  0  0  0  0  0  0  0  0
   -2.9034   -2.5647    0.4282 S   0  0  0  0  0  0  0  0  0  0  0  0
   -5.7211   -1.5808    1.5233 S   0  0  0  0  0  0  0  0  0  0  0  0
   -6.5268   -0.0578    1.6058 N   0  0  0  0  0  0  0  0  0  0  0  0
   -6.4963   -2.5286    0.6790 O   0  0  0  0  0  0  0  0  0  0  0  0
   -5.4678   -2.1333    2.9144 O   0  0  0  0  0  0  0  0  0  0  0  0
   -2.0139    3.9701   -1.5937 H   0  0  0  0  0  0  0  0  0  0  0  0
   -0.7061    2.7416   -2.0275 H   0  0  0  0  0  0  0  0  0  0  0  0
   -0.6850    3.6380   -0.4034 H   0  0  0  0  0  0  0  0  0  0  0  0
   -2.4569    2.3061    0.3189 H   0  0  0  0  0  0  0  0  0  0  0  0
   -1.3932    0.6979   -1.9163 H   0  0  0  0  0  0  0  0  0  0  0  0
    0.3146    1.8046   -0.5301 H   0  0  0  0  0  0  0  0  0  0  0  0
   -0.2875    0.9944    0.9332 H   0  0  0  0  0  0  0  0  0  0  0  0
    2.3305   -0.8691    1.3435 H   0  0  0  0  0  0  0  0  0  0  0  0
    6.7188   -1.8849    0.9821 H   0  0  0  0  0  0  0  0  0  0  0  0
    6.7605   -0.1019    1.1456 H   0  0  0  0  0  0  0  0  0  0  0  0
    6.6566   -1.2043    2.6197 H   0  0  0  0  0  0  0  0  0  0  0  0
    5.9285   -0.2073   -0.8007 H   0  0  0  0  0  0  0  0  0  0  0  0
    4.6832    0.4667   -2.7426 H   0  0  0  0  0  0  0  0  0  0  0  0
    2.1847    0.4960   -2.7067 H   0  0  0  0  0  0  0  0  0  0  0  0
   -4.1863    0.7702    0.3904 H   0  0  0  0  0  0  0  0  0  0  0  0
   -6.3237    0.5587    0.8108 H   0  0  0  0  0  0  0  0  0  0  0  0
   -6.3179    0.4777    2.4730 H   0  0  0  0  0  0  0  0  0  0  0  0
  1  2  1  0
  2  3  1  0
  3  4  1  0
  4  5  1  0
  5  6  1  0
  6  7  2  0
  7  8  1  0
  8  9  1  0
  9 10  1  0
  8 11  2  0
 11 12  1  0
 12 13  2  0
  5 14  1  0
 14 15  2  0
 14 16  2  0
 14 17  1  0
 17 18  2  0
 18 19  1  0
 19 20  2  0
 20 21  1  0
 20 22  1  0
 22 23  1  0
 22 24  2  0
 22 25  2  0
 18  3  1  0
 13  6  1  0
 21 17  1  0
  1 26  1  0
  1 27  1  0
  1 28  1  0
  2 29  1  0
  3 30  1  6
  4 31  1  0
  4 32  1  0
  7 33  1  0
 10 34  1  0
 10 35  1  0
 10 36  1  0
 11 37  1  0
 12 38  1  0
 13 39  1  0
 19 40  1  0
 23 41  1  0
 23 42  1  0
M  END
$$$$
