
     RDKit          3D

 37 40  0  0  0  0  0  0  0  0999 V2000
    3.0011   -4.5590    0.3364 Cl  0  0  0  0  0  0  0  0  0  0  0  0
    3.2585   -2.8947   -0.1262 C   0  0  0  0  0  0  0  0  0  0  0  0
    4.5233   -2.4740   -0.5214 C   0  0  0  0  0  0  0  0  0  0  0  0
    4.6794   -1.1351   -0.8828 C   0  0  0  0  0  0  0  0  0  0  0  0
    3.6338   -0.2409   -0.8578 C   0  0  0  0  0  0  0  0  0  0  0  0
    2.3947   -0.6621   -0.4684 C   0  0  0  0  0  0  0  0  0  0  0  0
    1.2901    0.2941   -0.4448 C   0  0  0  0  0  0  0  0  0  0  0  0
    0.0517   -0.0551   -0.0748 N   0  0  0  0  0  0  0  0  0  0  0  0
   -0.9907    0.7937   -0.0397 C   0  0  0  0  0  0  0  0  0  0  0  0
   -2.2759    0.3753    0.3588 N   0  0  0  0  0  0  0  0  0  0  0  0
   -2.6206   -0.9527    0.6693 C   0  0  0  0  0  0  0  0  0  0  0  0
   -3.7179   -1.2220    1.4994 C   0  0  0  0  0  0  0  0  0  0  0  0
   -4.0901   -2.5086    1.8069 C   0  0  0  0  0  0  0  0  0  0  0  0
   -3.4012   -3.5463    1.3119 N   0  0  0  0  0  0  0  0  0  0  0  0
   -2.3528   -3.3224    0.5191 C   0  0  0  0  0  0  0  0  0  0  0  0
   -1.9418   -2.0233    0.1818 C   0  0  0  0  0  0  0  0  0  0  0  0
   -0.7293    2.1068   -0.4174 C   0  0  0  0  0  0  0  0  0  0  0  0
   -1.7467    3.0340   -0.4082 C   0  0  0  0  0  0  0  0  0  0  0  0
   -1.4874    4.3460   -0.7861 C   0  0  0  0  0  0  0  0  0  0  0  0
   -0.2294    4.7480   -1.1732 C   0  0  0  0  0  0  0  0  0  0  0  0
    0.7564    3.7867   -1.1670 C   0  0  0  0  0  0  0  0  0  0  0  0
    0.5611    2.4687   -0.8025 C   0  0  0  0  0  0  0  0  0  0  0  0
    1.5242    1.5646   -0.8058 N   0  0  0  0  0  0  0  0  0  0  0  0
    2.2269   -1.9822   -0.1087 C   0  0  0  0  0  0  0  0  0  0  0  0
    5.3619   -3.1597   -0.5490 H   0  0  0  0  0  0  0  0  0  0  0  0
    5.6638   -0.7793   -1.1977 H   0  0  0  0  0  0  0  0  0  0  0  0
    3.8558    0.7900   -1.1592 H   0  0  0  0  0  0  0  0  0  0  0  0
   -3.0426    1.0702    0.4407 H   0  0  0  0  0  0  0  0  0  0  0  0
   -4.2636   -0.3662    1.8908 H   0  0  0  0  0  0  0  0  0  0  0  0
   -4.9353   -2.6855    2.4464 H   0  0  0  0  0  0  0  0  0  0  0  0
   -1.8262   -4.1996    0.1421 H   0  0  0  0  0  0  0  0  0  0  0  0
   -1.0959   -1.9717   -0.4680 H   0  0  0  0  0  0  0  0  0  0  0  0
   -2.7577    2.8198   -0.1248 H   0  0  0  0  0  0  0  0  0  0  0  0
   -2.3060    5.0835   -0.7765 H   0  0  0  0  0  0  0  0  0  0  0  0
    0.0126    5.7575   -1.4741 H   0  0  0  0  0  0  0  0  0  0  0  0
    1.7714    4.0440   -1.4628 H   0  0  0  0  0  0  0  0  0  0  0  0
    1.2446   -2.3426    0.2065 H   0  0  0  0  0  0  0  0  0  0  0  0
  1  2  1  0
  2  3  2  0
  3  4  1  0
  4  5  2  0
  5  6  1  0
  6  7  1  0
  7  8  2  0
  8  9  1  0
  9 10  1  0
 10 11  1  0
 11 12  2  0
 12 13  1  0
 13 14  2  0
 14 15  1  0
 15 16  2  0
  9 17  2  0
 17 18  1  0
 18 19  2  0
 19 20  1  0
 20 21  2  0
 21 22  1  0
 22 23  2  0
  6 24  2  0
 24  2  1  0
 23  7  1  0
 16 11  1  0
 22 17  1  0
  3 25  1  0
  4 26  1  0
  5 27  1  0
 10 28  1  0
 12 29  1  0
 13 30  1  0
 15 31  1  0
 16 32  1  0
 18 33  1  0
 19 34  1  0
 20 35  1  0
 21 36  1  0
 24 37  1  0
M  END
$$$$
