
     RDKit          3D

 50 53  0  0  0  0  0  0  0  0999 V2000
   -2.7033    2.4197   -1.7183 O   0  0  0  0  0  0  0  0  0  0  0  0
   -2.8336    1.7619   -0.6235 C   0  0  0  0  0  0  0  0  0  0  0  0
   -1.8691    1.9582    0.4842 C   0  0  2  0  0  0  0  0  0  0  0  0
   -0.4740    1.6095   -0.0187 C   0  0  0  0  0  0  0  0  0  0  0  0
    0.1539    0.9652    1.1564 C   0  0  2  0  0  0  0  0  0  0  0  0
    1.1180   -0.0141    0.9599 N   0  0  0  0  0  0  0  0  0  0  0  0
    0.8622   -1.1924    0.2726 C   0  0  0  0  0  0  0  0  0  0  0  0
    2.0453   -1.4662   -0.6685 C   0  0  0  0  0  0  0  0  0  0  0  0
    3.2658   -1.0335   -0.0427 N   0  0  0  0  0  0  0  0  0  0  0  0
    4.4008   -0.6775   -0.8020 C   0  0  0  0  0  0  0  0  0  0  0  0
    4.3751   -0.7334   -2.1584 N   0  0  0  0  0  0  0  0  0  0  0  0
    5.4479   -0.3964   -2.8640 C   0  0  0  0  0  0  0  0  0  0  0  0
    6.6223    0.0196   -2.2835 C   0  0  0  0  0  0  0  0  0  0  0  0
    6.6544    0.0785   -0.9049 C   0  0  0  0  0  0  0  0  0  0  0  0
    5.5568   -0.2684   -0.2435 N   0  0  0  0  0  0  0  0  0  0  0  0
    3.3200   -0.9656    1.3933 C   0  0  0  0  0  0  0  0  0  0  0  0
    2.2068   -0.0810    1.8619 C   0  0  0  0  0  0  0  0  0  0  0  0
   -1.0218    0.3883    1.9165 C   0  0  0  0  0  0  0  0  0  0  0  0
   -2.1896    1.1420    1.5890 N   0  0  0  0  0  0  0  0  0  0  0  0
   -3.8938    0.8408   -0.4515 N   0  0  0  0  0  0  0  0  0  0  0  0
   -4.8815    0.6016   -1.5213 C   0  0  0  0  0  0  0  0  0  0  0  0
   -5.4892   -0.7454   -1.1982 C   0  0  0  0  0  0  0  0  0  0  0  0
   -5.5559   -0.6974    0.2914 C   0  0  0  0  0  0  0  0  0  0  0  0
   -5.6320   -1.9515    0.8226 F   0  0  0  0  0  0  0  0  0  0  0  0
   -6.6168    0.1124    0.6621 F   0  0  0  0  0  0  0  0  0  0  0  0
   -4.2459    0.0051    0.6639 C   0  0  0  0  0  0  0  0  0  0  0  0
   -1.8904    3.0411    0.8057 H   0  0  0  0  0  0  0  0  0  0  0  0
   -0.5772    1.0180   -0.9134 H   0  0  0  0  0  0  0  0  0  0  0  0
    0.0041    2.5711   -0.2958 H   0  0  0  0  0  0  0  0  0  0  0  0
    0.5697    1.7657    1.8128 H   0  0  0  0  0  0  0  0  0  0  0  0
    0.8850   -2.0578    0.9980 H   0  0  0  0  0  0  0  0  0  0  0  0
   -0.0428   -1.2891   -0.3007 H   0  0  0  0  0  0  0  0  0  0  0  0
    1.8741   -0.9889   -1.6544 H   0  0  0  0  0  0  0  0  0  0  0  0
    2.1133   -2.5628   -0.8167 H   0  0  0  0  0  0  0  0  0  0  0  0
    5.4150   -0.4455   -3.9537 H   0  0  0  0  0  0  0  0  0  0  0  0
    7.4761    0.2864   -2.8836 H   0  0  0  0  0  0  0  0  0  0  0  0
    7.5387    0.3946   -0.3861 H   0  0  0  0  0  0  0  0  0  0  0  0
    3.1592   -1.9688    1.8548 H   0  0  0  0  0  0  0  0  0  0  0  0
    4.2700   -0.5308    1.7679 H   0  0  0  0  0  0  0  0  0  0  0  0
    1.8129   -0.4575    2.8474 H   0  0  0  0  0  0  0  0  0  0  0  0
    2.5526    0.9618    2.0697 H   0  0  0  0  0  0  0  0  0  0  0  0
   -0.8321    0.4384    3.0277 H   0  0  0  0  0  0  0  0  0  0  0  0
   -1.1248   -0.6822    1.6593 H   0  0  0  0  0  0  0  0  0  0  0  0
   -2.5704    1.6744    2.4138 H   0  0  0  0  0  0  0  0  0  0  0  0
   -4.3289    0.6070   -2.4629 H   0  0  0  0  0  0  0  0  0  0  0  0
   -5.6286    1.4159   -1.4409 H   0  0  0  0  0  0  0  0  0  0  0  0
   -4.8284   -1.5203   -1.6020 H   0  0  0  0  0  0  0  0  0  0  0  0
   -6.5121   -0.7499   -1.6367 H   0  0  0  0  0  0  0  0  0  0  0  0
   -3.4672   -0.7482    0.9221 H   0  0  0  0  0  0  0  0  0  0  0  0
   -4.4905    0.5612    1.5926 H   0  0  0  0  0  0  0  0  0  0  0  0
  1  2  2  0
  2  3  1  0
  3  4  1  0
  4  5  1  0
  5  6  1  0
  6  7  1  0
  7  8  1  0
  8  9  1  0
  9 10  1  0
 10 11  2  0
 11 12  1  0
 12 13  2  0
 13 14  1  0
 14 15  2  0
  9 16  1  0
 16 17  1  0
  5 18  1  0
 18 19  1  0
  2 20  1  0
 20 21  1  0
 21 22  1  0
 22 23  1  0
 23 24  1  0
 23 25  1  0
 23 26  1  0
 19  3  1  0
 26 20  1  0
 17  6  1  0
 15 10  1  0
  3 27  1  1
  4 28  1  0
  4 29  1  0
  5 30  1  1
  7 31  1  0
  7 32  1  0
  8 33  1  0
  8 34  1  0
 12 35  1  0
 13 36  1  0
 14 37  1  0
 16 38  1  0
 16 39  1  0
 17 40  1  0
 17 41  1  0
 18 42  1  0
 18 43  1  0
 19 44  1  0
 21 45  1  0
 21 46  1  0
 22 47  1  0
 22 48  1  0
 26 49  1  0
 26 50  1  0
M  END
$$$$
