
     RDKit          3D

 39 41  0  0  0  0  0  0  0  0999 V2000
    7.1783    1.8812   -1.3062 C   0  0  0  0  0  0  0  0  0  0  0  0
    6.2950    1.1166   -0.4213 N   0  0  0  0  0  0  0  0  0  0  0  0
    4.9303    0.9919   -0.7953 C   0  0  0  0  0  0  0  0  0  0  0  0
    4.5492    1.5485   -1.8742 O   0  0  0  0  0  0  0  0  0  0  0  0
    3.9884    0.2590    0.0125 C   0  0  0  0  0  0  0  0  0  0  0  0
    4.3052   -0.3650    1.1756 C   0  0  0  0  0  0  0  0  0  0  0  0
    3.3897   -1.0663    1.9425 C   0  0  0  0  0  0  0  0  0  0  0  0
    2.0888   -1.1231    1.4835 C   0  0  0  0  0  0  0  0  0  0  0  0
    1.7021   -0.5135    0.3146 C   0  0  0  0  0  0  0  0  0  0  0  0
    0.3530   -0.6048   -0.1080 N   0  0  0  0  0  0  0  0  0  0  0  0
   -0.5874   -1.3302    0.6881 C   0  0  0  0  0  0  0  0  0  0  0  0
   -1.9545   -1.3287    0.1049 C   0  0  0  0  0  0  0  0  0  0  0  0
   -2.9079   -0.4223    0.3473 N   0  0  0  0  0  0  0  0  0  0  0  0
   -4.0287   -0.7209   -0.3457 C   0  0  0  0  0  0  0  0  0  0  0  0
   -5.2737    0.0390   -0.3329 C   0  0  0  0  0  0  0  0  0  0  0  0
   -6.4939   -0.5612   -0.5257 C   0  0  0  0  0  0  0  0  0  0  0  0
   -7.6448    0.1966   -0.5054 C   0  0  0  0  0  0  0  0  0  0  0  0
   -7.5990    1.5376   -0.2970 N   0  0  0  0  0  0  0  0  0  0  0  0
   -6.4283    2.1614   -0.1047 C   0  0  0  0  0  0  0  0  0  0  0  0
   -5.2784    1.4085   -0.1243 C   0  0  0  0  0  0  0  0  0  0  0  0
   -3.7252   -1.8460   -1.0226 N   0  0  0  0  0  0  0  0  0  0  0  0
   -2.4874   -2.2190   -0.7610 N   0  0  0  0  0  0  0  0  0  0  0  0
    2.6591    0.1704   -0.4060 C   0  0  0  0  0  0  0  0  0  0  0  0
    7.1474    1.4762   -2.3455 H   0  0  0  0  0  0  0  0  0  0  0  0
    6.8739    2.9381   -1.3012 H   0  0  0  0  0  0  0  0  0  0  0  0
    8.2100    1.7808   -0.9437 H   0  0  0  0  0  0  0  0  0  0  0  0
    6.6813    0.6829    0.4574 H   0  0  0  0  0  0  0  0  0  0  0  0
    5.3129   -0.3364    1.5566 H   0  0  0  0  0  0  0  0  0  0  0  0
    3.7071   -1.5411    2.8599 H   0  0  0  0  0  0  0  0  0  0  0  0
    1.3699   -1.6602    2.0633 H   0  0  0  0  0  0  0  0  0  0  0  0
    0.0054   -0.1597   -0.9893 H   0  0  0  0  0  0  0  0  0  0  0  0
   -0.2932   -2.3956    0.8441 H   0  0  0  0  0  0  0  0  0  0  0  0
   -0.5785   -0.8734    1.7096 H   0  0  0  0  0  0  0  0  0  0  0  0
   -6.5789   -1.6257   -0.6952 H   0  0  0  0  0  0  0  0  0  0  0  0
   -8.6391   -0.2200   -0.6514 H   0  0  0  0  0  0  0  0  0  0  0  0
   -6.3340    3.2191    0.0645 H   0  0  0  0  0  0  0  0  0  0  0  0
   -4.3078    1.8907    0.0297 H   0  0  0  0  0  0  0  0  0  0  0  0
   -1.9418   -3.0359   -1.1135 H   0  0  0  0  0  0  0  0  0  0  0  0
    2.3355    0.6506   -1.3348 H   0  0  0  0  0  0  0  0  0  0  0  0
  1  2  1  0
  2  3  1  0
  3  4  2  0
  3  5  1  0
  5  6  2  0
  6  7  1  0
  7  8  2  0
  8  9  1  0
  9 10  1  0
 10 11  1  0
 11 12  1  0
 12 13  2  0
 13 14  1  0
 14 15  1  0
 15 16  2  0
 16 17  1  0
 17 18  2  0
 18 19  1  0
 19 20  2  0
 14 21  2  0
 21 22  1  0
  9 23  2  0
 23  5  1  0
 22 12  1  0
 20 15  1  0
  1 24  1  0
  1 25  1  0
  1 26  1  0
  2 27  1  0
  6 28  1  0
  7 29  1  0
  8 30  1  0
 10 31  1  0
 11 32  1  0
 11 33  1  0
 16 34  1  0
 17 35  1  0
 19 36  1  0
 20 37  1  0
 22 38  1  0
 23 39  1  0
M  END
$$$$
