
     RDKit          3D

 38 41  0  0  0  0  0  0  0  0999 V2000
   -2.5009   -4.9647    0.8205 Br  0  0  0  0  0  0  0  0  0  0  0  0
   -1.1471   -3.6424    0.5833 C   0  0  0  0  0  0  0  0  0  0  0  0
   -1.2061   -2.2675    0.4181 C   0  0  0  0  0  0  0  0  0  0  0  0
   -2.3078   -1.4968    0.3846 N   0  0  0  0  0  0  0  0  0  0  0  0
   -2.2515   -0.1567    0.2172 C   0  0  0  0  0  0  0  0  0  0  0  0
   -0.9668    0.3288    0.0865 C   0  0  0  0  0  0  0  0  0  0  0  0
    0.1608   -0.4659    0.1215 C   0  0  0  0  0  0  0  0  0  0  0  0
    1.4443    0.1137   -0.0207 N   0  0  0  0  0  0  0  0  0  0  0  0
    2.6438   -0.7036    0.0131 C   0  0  0  0  0  0  0  0  0  0  0  0
    3.8736    0.1278   -0.1569 C   0  0  0  0  0  0  0  0  0  0  0  0
    4.4612    0.4290   -1.3731 C   0  0  0  0  0  0  0  0  0  0  0  0
    5.6036    1.2150   -1.3693 C   0  0  0  0  0  0  0  0  0  0  0  0
    6.1435    1.6868   -0.1806 C   0  0  0  0  0  0  0  0  0  0  0  0
    5.5391    1.3701    0.9904 N   0  0  0  0  0  0  0  0  0  0  0  0
    4.4263    0.6063    1.0078 C   0  0  0  0  0  0  0  0  0  0  0  0
    0.0355   -1.7938    0.2912 N   0  0  0  0  0  0  0  0  0  0  0  0
    0.9093   -2.7830    0.3641 N   0  0  0  0  0  0  0  0  0  0  0  0
    0.2103   -3.9202    0.5422 C   0  0  0  0  0  0  0  0  0  0  0  0
   -3.4391    0.6851    0.1798 C   0  0  0  0  0  0  0  0  0  0  0  0
   -3.4338    2.0416    0.0132 C   0  0  0  0  0  0  0  0  0  0  0  0
   -4.5685    2.8257   -0.0201 C   0  0  0  0  0  0  0  0  0  0  0  0
   -5.8018    2.1813    0.1272 C   0  0  0  0  0  0  0  0  0  0  0  0
   -5.8147    0.8068    0.2964 C   0  0  0  0  0  0  0  0  0  0  0  0
   -4.6592    0.0585    0.3242 C   0  0  0  0  0  0  0  0  0  0  0  0
   -0.8121    1.3899   -0.0521 H   0  0  0  0  0  0  0  0  0  0  0  0
    1.5429    1.1483   -0.1530 H   0  0  0  0  0  0  0  0  0  0  0  0
    2.5942   -1.4333   -0.8346 H   0  0  0  0  0  0  0  0  0  0  0  0
    2.7011   -1.3210    0.9370 H   0  0  0  0  0  0  0  0  0  0  0  0
    3.9881    0.0290   -2.2569 H   0  0  0  0  0  0  0  0  0  0  0  0
    6.0589    1.4489   -2.3070 H   0  0  0  0  0  0  0  0  0  0  0  0
    7.0266    2.2952   -0.1673 H   0  0  0  0  0  0  0  0  0  0  0  0
    4.0314    0.4189    2.0035 H   0  0  0  0  0  0  0  0  0  0  0  0
    0.6935   -4.8848    0.6337 H   0  0  0  0  0  0  0  0  0  0  0  0
   -2.4928    2.5437   -0.1005 H   0  0  0  0  0  0  0  0  0  0  0  0
   -4.4822    3.9099   -0.1577 H   0  0  0  0  0  0  0  0  0  0  0  0
   -6.6871    2.7984    0.1006 H   0  0  0  0  0  0  0  0  0  0  0  0
   -6.8015    0.3747    0.4041 H   0  0  0  0  0  0  0  0  0  0  0  0
   -4.7150   -0.9994    0.4569 H   0  0  0  0  0  0  0  0  0  0  0  0
  1  2  1  0
  2  3  2  0
  3  4  1  0
  4  5  2  0
  5  6  1  0
  6  7  2  0
  7  8  1  0
  8  9  1  0
  9 10  1  0
 10 11  2  0
 11 12  1  0
 12 13  2  0
 13 14  1  0
 14 15  2  0
  7 16  1  0
 16 17  1  0
 17 18  2  0
  5 19  1  0
 19 20  2  0
 20 21  1  0
 21 22  2  0
 22 23  1  0
 23 24  2  0
 18  2  1  0
 24 19  1  0
 16  3  1  0
 15 10  1  0
  6 25  1  0
  8 26  1  0
  9 27  1  0
  9 28  1  0
 11 29  1  0
 12 30  1  0
 13 31  1  0
 15 32  1  0
 18 33  1  0
 20 34  1  0
 21 35  1  0
 22 36  1  0
 23 37  1  0
 24 38  1  0
M  END
$$$$
