
     RDKit          3D

 38 40  0  0  0  0  0  0  0  0999 V2000
   -2.2706    2.0531   -5.4463 N   0  0  0  0  0  0  0  0  0  0  0  0
   -2.0631    1.2119   -4.6840 C   0  0  0  0  0  0  0  0  0  0  0  0
   -1.7901    0.1663   -3.7059 C   0  0  0  0  0  0  0  0  0  0  0  0
   -1.5956   -1.1353   -4.1183 C   0  0  0  0  0  0  0  0  0  0  0  0
   -1.3387   -2.1269   -3.2060 C   0  0  0  0  0  0  0  0  0  0  0  0
   -1.2824   -1.7694   -1.8551 C   0  0  0  0  0  0  0  0  0  0  0  0
   -1.4737   -0.4859   -1.4437 C   0  0  0  0  0  0  0  0  0  0  0  0
   -1.7377    0.5254   -2.3965 C   0  0  0  0  0  0  0  0  0  0  0  0
   -1.4133   -0.1055   -0.0288 C   0  0  0  0  0  0  0  0  0  0  0  0
   -1.2235   -1.1506    0.8769 N   0  0  0  0  0  0  0  0  0  0  0  0
   -0.7338   -0.6456    2.4438 S   0  0  0  0  0  6  0  0  0  0  0  0
   -0.6476   -1.7669    3.4114 O   0  0  0  0  0  0  0  0  0  0  0  0
   -1.7916    0.3150    2.9464 O   0  0  0  0  0  0  0  0  0  0  0  0
    0.8060    0.1700    2.2843 C   0  0  0  0  0  0  0  0  0  0  0  0
    1.9576   -0.5933    2.3920 C   0  0  0  0  0  0  0  0  0  0  0  0
    3.1944    0.0103    2.2721 C   0  0  0  0  0  0  0  0  0  0  0  0
    3.2779    1.3704    2.0456 C   0  0  0  0  0  0  0  0  0  0  0  0
    2.1510    2.1589    1.9333 C   0  0  0  0  0  0  0  0  0  0  0  0
    2.2490    3.5927    1.6942 C   0  0  0  0  0  0  0  0  0  0  0  0
    3.3769    4.1227    1.5889 O   0  0  0  0  0  0  0  0  0  0  0  0
    1.1131    4.3742    1.5821 O   0  0  0  0  0  0  0  0  0  0  0  0
    0.9348    1.5130    2.0600 C   0  0  0  0  0  0  0  0  0  0  0  0
   -0.4476   -2.2639    0.3884 C   0  0  0  0  0  0  0  0  0  0  0  0
   -1.0058   -2.8466   -0.8529 C   0  0  0  0  0  0  0  0  0  0  0  0
   -1.6511   -1.3507   -5.1734 H   0  0  0  0  0  0  0  0  0  0  0  0
   -1.1788   -3.1558   -3.4630 H   0  0  0  0  0  0  0  0  0  0  0  0
   -1.8807    1.5211   -2.0176 H   0  0  0  0  0  0  0  0  0  0  0  0
   -2.4093    0.3966    0.1939 H   0  0  0  0  0  0  0  0  0  0  0  0
   -0.6490    0.6873    0.1677 H   0  0  0  0  0  0  0  0  0  0  0  0
    1.8651   -1.6588    2.5698 H   0  0  0  0  0  0  0  0  0  0  0  0
    4.1036   -0.5540    2.3512 H   0  0  0  0  0  0  0  0  0  0  0  0
    4.2556    1.8661    1.9478 H   0  0  0  0  0  0  0  0  0  0  0  0
    1.2118    5.3593    1.7812 H   0  0  0  0  0  0  0  0  0  0  0  0
    0.0317    2.1085    1.9763 H   0  0  0  0  0  0  0  0  0  0  0  0
    0.5825   -1.8899    0.2173 H   0  0  0  0  0  0  0  0  0  0  0  0
   -0.3674   -3.0527    1.1635 H   0  0  0  0  0  0  0  0  0  0  0  0
   -0.2391   -3.5474   -1.2835 H   0  0  0  0  0  0  0  0  0  0  0  0
   -1.9202   -3.4234   -0.6133 H   0  0  0  0  0  0  0  0  0  0  0  0
  1  2  3  0
  2  3  1  0
  3  4  2  0
  4  5  1  0
  5  6  2  0
  6  7  1  0
  7  8  2  0
  7  9  1  0
  9 10  1  0
 10 11  1  0
 11 12  2  0
 11 13  2  0
 11 14  1  0
 14 15  2  0
 15 16  1  0
 16 17  2  0
 17 18  1  0
 18 19  1  0
 19 20  2  0
 19 21  1  0
 18 22  2  0
 10 23  1  0
 23 24  1  0
  8  3  1  0
 22 14  1  0
 24  6  1  0
  4 25  1  0
  5 26  1  0
  8 27  1  0
  9 28  1  0
  9 29  1  0
 15 30  1  0
 16 31  1  0
 17 32  1  0
 21 33  1  0
 22 34  1  0
 23 35  1  0
 23 36  1  0
 24 37  1  0
 24 38  1  0
M  END
$$$$
