
     RDKit          3D

 31 33  0  0  0  0  0  0  0  0999 V2000
   -5.1511    0.7456    0.6464 C   0  0  0  0  0  0  0  0  0  0  0  0
   -3.6827    0.7990    0.5508 C   0  0  0  0  0  0  0  0  0  0  0  0
   -2.9277    1.9110    0.8334 C   0  0  0  0  0  0  0  0  0  0  0  0
   -1.6440    1.5199    0.6159 N   0  0  0  0  0  0  0  0  0  0  0  0
   -1.6413    0.2216    0.2185 C   0  0  0  0  0  0  0  0  0  0  0  0
   -2.9189   -0.2427    0.1739 N   0  0  0  0  0  0  0  0  0  0  0  0
   -3.1461   -1.5158   -0.1983 C   0  0  0  0  0  0  0  0  0  0  0  0
   -2.0919   -2.3413   -0.5313 C   0  0  0  0  0  0  0  0  0  0  0  0
   -0.8131   -1.9024   -0.4945 N   0  0  0  0  0  0  0  0  0  0  0  0
   -0.5810   -0.6234   -0.1209 C   0  0  0  0  0  0  0  0  0  0  0  0
    0.7638   -0.1535   -0.0796 N   0  0  0  0  0  0  0  0  0  0  0  0
    1.8906   -1.0152   -0.4292 C   0  0  0  0  0  0  0  0  0  0  0  0
    3.1521   -0.2456   -0.2898 C   0  0  0  0  0  0  0  0  0  0  0  0
    3.9037   -0.1647    0.8553 C   0  0  0  0  0  0  0  0  0  0  0  0
    5.0708    0.5778    0.8984 C   0  0  0  0  0  0  0  0  0  0  0  0
    5.5098    1.2494   -0.1890 N   0  0  0  0  0  0  0  0  0  0  0  0
    4.8266    1.2198   -1.3539 C   0  0  0  0  0  0  0  0  0  0  0  0
    3.6676    0.4704   -1.3625 C   0  0  0  0  0  0  0  0  0  0  0  0
   -5.5088   -0.2868    0.9264 H   0  0  0  0  0  0  0  0  0  0  0  0
   -5.5784    0.9369   -0.3695 H   0  0  0  0  0  0  0  0  0  0  0  0
   -5.5847    1.4177    1.4159 H   0  0  0  0  0  0  0  0  0  0  0  0
   -3.2253    2.9003    1.1588 H   0  0  0  0  0  0  0  0  0  0  0  0
   -4.1711   -1.8851   -0.2332 H   0  0  0  0  0  0  0  0  0  0  0  0
   -2.2347   -3.3706   -0.8353 H   0  0  0  0  0  0  0  0  0  0  0  0
    0.9380    0.8467    0.2131 H   0  0  0  0  0  0  0  0  0  0  0  0
    1.7971   -1.3174   -1.5022 H   0  0  0  0  0  0  0  0  0  0  0  0
    1.8837   -1.8996    0.2411 H   0  0  0  0  0  0  0  0  0  0  0  0
    3.5571   -0.7007    1.7304 H   0  0  0  0  0  0  0  0  0  0  0  0
    5.6742    0.6514    1.7935 H   0  0  0  0  0  0  0  0  0  0  0  0
    5.1447    1.7436   -2.2463 H   0  0  0  0  0  0  0  0  0  0  0  0
    3.1208    0.4538   -2.3148 H   0  0  0  0  0  0  0  0  0  0  0  0
  1  2  1  0
  2  3  2  0
  3  4  1  0
  4  5  2  0
  5  6  1  0
  6  7  1  0
  7  8  2  0
  8  9  1  0
  9 10  2  0
 10 11  1  0
 11 12  1  0
 12 13  1  0
 13 14  2  0
 14 15  1  0
 15 16  2  0
 16 17  1  0
 17 18  2  0
  6  2  1  0
 18 13  1  0
 10  5  1  0
  1 19  1  0
  1 20  1  0
  1 21  1  0
  3 22  1  0
  7 23  1  0
  8 24  1  0
 11 25  1  0
 12 26  1  0
 12 27  1  0
 14 28  1  0
 15 29  1  0
 17 30  1  0
 18 31  1  0
M  END
$$$$
