
     RDKit          3D

 83 84  0  0  0  0  0  0  0  0999 V2000
   -6.0251   -0.9697    1.5720 C   0  0  0  0  0  0  0  0  0  0  0  0
   -5.5311   -2.1925    0.8658 C   0  0  0  0  0  0  0  0  0  0  0  0
   -6.1700   -3.4420    1.3987 C   0  0  0  0  0  0  0  0  0  0  0  0
   -5.6842   -2.0792   -0.6590 C   0  0  2  0  0  0  0  0  0  0  0  0
   -4.9643   -3.3018   -1.1161 C   0  0  0  0  0  0  0  0  0  0  0  0
   -3.8099   -3.4122   -0.1204 C   0  0  0  0  0  0  0  0  0  0  0  0
   -4.0146   -2.2638    0.8606 C   0  0  2  0  0  0  0  0  0  0  0  0
   -3.3590   -2.4288    2.1522 C   0  0  0  0  0  0  0  0  0  0  0  0
   -3.7266   -0.9213    0.1797 C   0  0  1  0  0  0  0  0  0  0  0  0
   -2.3660   -0.8371   -0.2325 N   0  0  0  0  0  0  0  0  0  0  0  0
   -1.4455    0.1322    0.2224 C   0  0  0  0  0  0  0  0  0  0  0  0
   -1.8515    0.9785    1.0469 O   0  0  0  0  0  0  0  0  0  0  0  0
   -0.0178    0.2247   -0.2078 C   0  0  2  0  0  0  0  0  0  0  0  0
    0.3263    1.5678   -0.7678 C   0  0  0  0  0  0  0  0  0  0  0  0
    0.1553    2.7277    0.1495 C   0  0  0  0  0  0  0  0  0  0  0  0
    0.5671    4.0166   -0.5964 C   0  0  0  0  0  0  0  0  0  0  0  0
    0.6019    5.1455    0.3877 C   0  0  0  0  0  0  0  0  0  0  0  0
   -0.2005    4.8513    1.6156 C   0  0  0  0  0  0  0  0  0  0  0  0
    0.2898    3.6665    2.3966 C   0  0  0  0  0  0  0  0  0  0  0  0
    0.9047    2.6319    1.4533 C   0  0  0  0  0  0  0  0  0  0  0  0
    0.3147   -0.8527   -1.1181 N   0  0  0  0  0  0  0  0  0  0  0  0
    1.3359   -2.0435   -0.4343 S   0  0  0  0  0  6  0  0  0  0  0  0
    1.3981   -3.2515   -1.3384 O   0  0  0  0  0  0  0  0  0  0  0  0
    0.6127   -2.5517    0.8159 O   0  0  0  0  0  0  0  0  0  0  0  0
    2.8625   -1.5320    0.0777 N   0  0  0  0  0  0  0  0  0  0  0  0
    3.6966   -0.9858   -1.0516 C   0  0  1  0  0  0  0  0  0  0  0  0
    4.1266    0.3614   -0.6306 C   0  0  0  0  0  0  0  0  0  0  0  0
    4.8918    1.2998   -1.4350 C   0  0  0  0  0  0  0  0  0  0  0  0
    6.2606    0.9430   -1.8718 C   0  0  0  0  0  0  0  0  0  0  0  0
    7.1998    0.6062   -0.7355 C   0  0  0  0  0  0  0  0  0  0  0  0
    8.5014    0.2661   -1.2712 N   0  0  0  0  0  0  0  0  0  0  0  0
    4.8120   -1.9403   -1.2122 C   0  0  0  0  0  0  0  0  0  0  0  0
    5.0293   -2.8202   -0.2964 O   0  0  0  0  0  0  0  0  0  0  0  0
    5.6420   -1.9688   -2.2795 O   0  0  0  0  0  0  0  0  0  0  0  0
   -4.7377   -0.8991   -0.9218 C   0  0  0  0  0  0  0  0  0  0  0  0
    0.6838    0.0000    0.0000 Cl  0  0  0  0  0  0  0  0  0  0  0  0
   -5.3359   -0.7444    2.4360 H   0  0  0  0  0  0  0  0  0  0  0  0
   -7.0103   -1.1781    2.0314 H   0  0  0  0  0  0  0  0  0  0  0  0
   -6.0590   -0.0733    0.9188 H   0  0  0  0  0  0  0  0  0  0  0  0
   -7.2391   -3.3523    1.5788 H   0  0  0  0  0  0  0  0  0  0  0  0
   -5.7073   -3.6474    2.4021 H   0  0  0  0  0  0  0  0  0  0  0  0
   -5.9893   -4.3261    0.7920 H   0  0  0  0  0  0  0  0  0  0  0  0
   -6.6861   -1.9274   -0.9906 H   0  0  0  0  0  0  0  0  0  0  0  0
   -5.5529   -4.2074   -1.1944 H   0  0  0  0  0  0  0  0  0  0  0  0
   -4.4840   -3.0544   -2.1023 H   0  0  0  0  0  0  0  0  0  0  0  0
   -3.9797   -4.3401    0.4610 H   0  0  0  0  0  0  0  0  0  0  0  0
   -2.8289   -3.3805   -0.6045 H   0  0  0  0  0  0  0  0  0  0  0  0
   -3.0616   -1.4160    2.5528 H   0  0  0  0  0  0  0  0  0  0  0  0
   -2.3670   -2.9444    1.9866 H   0  0  0  0  0  0  0  0  0  0  0  0
   -3.8887   -2.9286    2.9569 H   0  0  0  0  0  0  0  0  0  0  0  0
   -4.0086   -0.1399    0.9151 H   0  0  0  0  0  0  0  0  0  0  0  0
   -2.0157   -1.5393   -0.9210 H   0  0  0  0  0  0  0  0  0  0  0  0
    0.5608    0.0430    0.7122 H   0  0  0  0  0  0  0  0  0  0  0  0
    1.3027    1.6152   -1.2682 H   0  0  0  0  0  0  0  0  0  0  0  0
   -0.4242    1.7193   -1.6202 H   0  0  0  0  0  0  0  0  0  0  0  0
   -0.9191    2.9457    0.4234 H   0  0  0  0  0  0  0  0  0  0  0  0
    1.5263    3.8828   -1.0923 H   0  0  0  0  0  0  0  0  0  0  0  0
   -0.1986    4.2306   -1.3836 H   0  0  0  0  0  0  0  0  0  0  0  0
    1.6446    5.3628    0.6993 H   0  0  0  0  0  0  0  0  0  0  0  0
    0.1582    6.0535   -0.0813 H   0  0  0  0  0  0  0  0  0  0  0  0
   -1.2747    4.7506    1.3150 H   0  0  0  0  0  0  0  0  0  0  0  0
   -0.1429    5.7464    2.2841 H   0  0  0  0  0  0  0  0  0  0  0  0
    1.0040    3.9414    3.2008 H   0  0  0  0  0  0  0  0  0  0  0  0
   -0.6083    3.1862    2.8363 H   0  0  0  0  0  0  0  0  0  0  0  0
    1.9934    2.8133    1.3276 H   0  0  0  0  0  0  0  0  0  0  0  0
    0.6929    1.6402    1.8949 H   0  0  0  0  0  0  0  0  0  0  0  0
    0.8549   -0.4227   -1.9286 H   0  0  0  0  0  0  0  0  0  0  0  0
    2.8296   -0.7929    0.7923 H   0  0  0  0  0  0  0  0  0  0  0  0
    3.0405   -0.9891   -1.9213 H   0  0  0  0  0  0  0  0  0  0  0  0
    4.7583    0.2442    0.3612 H   0  0  0  0  0  0  0  0  0  0  0  0
    3.2200    0.9080   -0.1692 H   0  0  0  0  0  0  0  0  0  0  0  0
    4.9533    2.2785   -0.8483 H   0  0  0  0  0  0  0  0  0  0  0  0
    4.2478    1.5756   -2.3492 H   0  0  0  0  0  0  0  0  0  0  0  0
    6.6647    1.9805   -2.2887 H   0  0  0  0  0  0  0  0  0  0  0  0
    6.2956    0.3052   -2.7440 H   0  0  0  0  0  0  0  0  0  0  0  0
    6.7692   -0.1851   -0.1088 H   0  0  0  0  0  0  0  0  0  0  0  0
    7.3079    1.5163   -0.0914 H   0  0  0  0  0  0  0  0  0  0  0  0
    8.3500   -0.1068   -2.2395 H   0  0  0  0  0  0  0  0  0  0  0  0
    8.9764   -0.4072   -0.6394 H   0  0  0  0  0  0  0  0  0  0  0  0
    6.5788   -2.2980   -2.2701 H   0  0  0  0  0  0  0  0  0  0  0  0
   -4.2887   -1.1188   -1.9250 H   0  0  0  0  0  0  0  0  0  0  0  0
   -5.2844    0.0554   -0.9948 H   0  0  0  0  0  0  0  0  0  0  0  0
   -0.6838    0.0000    0.0000 H   0  0  0  0  0  0  0  0  0  0  0  0
  1  2  1  0
  2  3  1  0
  2  4  1  0
  4  5  1  0
  5  6  1  0
  6  7  1  0
  7  8  1  1
  7  9  1  0
  9 10  1  0
 10 11  1  0
 11 12  2  0
 11 13  1  0
 13 14  1  0
 14 15  1  0
 15 16  1  0
 16 17  1  0
 17 18  1  0
 18 19  1  0
 19 20  1  0
 13 21  1  0
 21 22  1  0
 22 23  2  0
 22 24  2  0
 22 25  1  0
 25 26  1  0
 26 27  1  0
 27 28  1  0
 28 29  1  0
 29 30  1  0
 30 31  1  0
 26 32  1  0
 32 33  2  0
 32 34  1  0
  9 35  1  0
  7  2  1  0
 20 15  1  0
 35  4  1  0
  1 37  1  0
  1 38  1  0
  1 39  1  0
  3 40  1  0
  3 41  1  0
  3 42  1  0
  4 43  1  1
  5 44  1  0
  5 45  1  0
  6 46  1  0
  6 47  1  0
  8 48  1  0
  8 49  1  0
  8 50  1  0
  9 51  1  1
 10 52  1  0
 13 53  1  1
 14 54  1  0
 14 55  1  0
 15 56  1  0
 16 57  1  0
 16 58  1  0
 17 59  1  0
 17 60  1  0
 18 61  1  0
 18 62  1  0
 19 63  1  0
 19 64  1  0
 20 65  1  0
 20 66  1  0
 21 67  1  0
 25 68  1  0
 26 69  1  6
 27 70  1  0
 27 71  1  0
 28 72  1  0
 28 73  1  0
 29 74  1  0
 29 75  1  0
 30 76  1  0
 30 77  1  0
 31 78  1  0
 31 79  1  0
 34 80  1  0
 35 81  1  0
 35 82  1  0
 36 83  1  0
M  END
$$$$
