
     RDKit          3D

 39 42  0  0  0  0  0  0  0  0999 V2000
   -5.1587   -1.6884    1.4132 N   0  0  0  0  0  0  0  0  0  0  0  0
   -4.6399   -0.7487    0.9403 C   0  0  0  0  0  0  0  0  0  0  0  0
   -4.0112    0.4039    0.3653 C   0  0  0  0  0  0  0  0  0  0  0  0
   -4.6629    1.5971    0.1846 C   0  0  0  0  0  0  0  0  0  0  0  0
   -3.7435    2.4308   -0.3813 N   0  0  0  0  0  0  0  0  0  0  0  0
   -2.5838    1.7438   -0.5281 C   0  0  0  0  0  0  0  0  0  0  0  0
   -1.3840    2.1751   -1.0532 C   0  0  0  0  0  0  0  0  0  0  0  0
   -0.3471    1.2659   -1.0889 C   0  0  0  0  0  0  0  0  0  0  0  0
   -0.5107   -0.0380   -0.6112 C   0  0  0  0  0  0  0  0  0  0  0  0
    0.6041   -0.9685   -0.6648 C   0  0  0  0  0  0  0  0  0  0  0  0
    1.8151   -0.7771   -0.0037 C   0  0  0  0  0  0  0  0  0  0  0  0
    2.2408    0.3354    0.8374 C   0  0  0  0  0  0  0  0  0  0  0  0
    1.5920    0.6755    2.0240 C   0  0  0  0  0  0  0  0  0  0  0  0
    2.0212    1.7373    2.7938 C   0  0  0  0  0  0  0  0  0  0  0  0
    3.1087    2.5011    2.4167 C   0  0  0  0  0  0  0  0  0  0  0  0
    3.7763    2.1886    1.2413 C   0  0  0  0  0  0  0  0  0  0  0  0
    4.8815    2.9515    0.8421 O   0  0  0  0  0  0  0  0  0  0  0  0
    3.3239    1.1296    0.5028 C   0  0  0  0  0  0  0  0  0  0  0  0
    2.5533   -1.8522   -0.3085 N   0  0  0  0  0  0  0  0  0  0  0  0
    1.8526   -2.6807   -1.1177 C   0  0  0  0  0  0  0  0  0  0  0  0
    0.6370   -2.1245   -1.3371 N   0  0  0  0  0  0  0  0  0  0  0  0
   -0.3695   -2.7464   -2.1640 C   0  0  0  0  0  0  0  0  0  0  0  0
   -1.2855   -3.6720   -1.3952 C   0  0  0  0  0  0  0  0  0  0  0  0
   -2.2135   -4.2277   -2.2380 F   0  0  0  0  0  0  0  0  0  0  0  0
   -0.5989   -4.6884   -0.7596 F   0  0  0  0  0  0  0  0  0  0  0  0
   -1.7163   -0.3614   -0.1194 N   0  0  0  0  0  0  0  0  0  0  0  0
   -2.7296    0.4867   -0.0714 N   0  0  0  0  0  0  0  0  0  0  0  0
   -5.6697    1.9043    0.4066 H   0  0  0  0  0  0  0  0  0  0  0  0
   -1.2661    3.1904   -1.4225 H   0  0  0  0  0  0  0  0  0  0  0  0
    0.6001    1.5590   -1.4880 H   0  0  0  0  0  0  0  0  0  0  0  0
    0.7334    0.0922    2.3459 H   0  0  0  0  0  0  0  0  0  0  0  0
    1.5246    2.0163    3.7229 H   0  0  0  0  0  0  0  0  0  0  0  0
    3.4616    3.3467    3.0157 H   0  0  0  0  0  0  0  0  0  0  0  0
    4.9800    3.9113    1.1425 H   0  0  0  0  0  0  0  0  0  0  0  0
    3.8416    0.8711   -0.4279 H   0  0  0  0  0  0  0  0  0  0  0  0
    2.1953   -3.6233   -1.5225 H   0  0  0  0  0  0  0  0  0  0  0  0
   -1.0366   -1.9342   -2.5687 H   0  0  0  0  0  0  0  0  0  0  0  0
    0.0420   -3.2807   -3.0334 H   0  0  0  0  0  0  0  0  0  0  0  0
   -1.8577   -3.1015   -0.6221 H   0  0  0  0  0  0  0  0  0  0  0  0
  1  2  3  0
  2  3  1  0
  3  4  2  0
  4  5  1  0
  5  6  2  0
  6  7  1  0
  7  8  2  0
  8  9  1  0
  9 10  1  0
 10 11  2  0
 11 12  1  0
 12 13  2  0
 13 14  1  0
 14 15  2  0
 15 16  1  0
 16 17  1  0
 16 18  2  0
 11 19  1  0
 19 20  2  0
 20 21  1  0
 21 22  1  0
 22 23  1  0
 23 24  1  0
 23 25  1  0
  9 26  2  0
 26 27  1  0
 27  3  1  0
 27  6  1  0
 21 10  1  0
 18 12  1  0
  4 28  1  0
  7 29  1  0
  8 30  1  0
 13 31  1  0
 14 32  1  0
 15 33  1  0
 17 34  1  0
 18 35  1  0
 20 36  1  0
 22 37  1  0
 22 38  1  0
 23 39  1  0
M  END
$$$$
