
     RDKit          3D

 41 44  0  0  0  0  0  0  0  0999 V2000
    7.4565    0.3163    0.3781 C   0  0  0  0  0  0  0  0  0  0  0  0
    6.6326   -0.1603   -0.6495 O   0  0  0  0  0  0  0  0  0  0  0  0
    5.2520   -0.2057   -0.4666 C   0  0  0  0  0  0  0  0  0  0  0  0
    4.6427    0.2017    0.6954 C   0  0  0  0  0  0  0  0  0  0  0  0
    3.2707    0.1483    0.8565 C   0  0  0  0  0  0  0  0  0  0  0  0
    2.4558   -0.3193   -0.1506 C   0  0  0  0  0  0  0  0  0  0  0  0
    1.0696   -0.3504    0.0699 N   0  0  0  0  0  0  0  0  0  0  0  0
    0.1937    0.2642   -0.7389 C   0  0  0  0  0  0  0  0  0  0  0  0
   -1.0996    0.2338   -0.5313 N   0  0  0  0  0  0  0  0  0  0  0  0
   -1.7259   -0.4111    0.5113 C   0  0  0  0  0  0  0  0  0  0  0  0
   -0.8190   -1.0440    1.3440 C   0  0  0  0  0  0  0  0  0  0  0  0
   -1.7998   -1.7711    2.5635 S   0  0  0  0  0  0  0  0  0  0  0  0
   -3.4145   -1.2004    1.9167 C   0  0  0  0  0  0  0  0  0  0  0  0
   -4.6613   -1.3944    2.3783 N   0  0  0  0  0  0  0  0  0  0  0  0
   -5.7084   -0.8552    1.7135 C   0  0  0  0  0  0  0  0  0  0  0  0
   -5.3873   -0.1344    0.5884 C   0  0  0  0  0  0  0  0  0  0  0  0
   -4.1194    0.0634    0.1176 C   0  0  0  0  0  0  0  0  0  0  0  0
   -3.9615    0.8114   -1.0603 N   0  0  0  0  0  0  0  0  0  0  0  0
   -3.4798    0.1471   -2.2543 C   0  0  0  0  0  0  0  0  0  0  0  0
   -4.2513    2.2260   -1.1680 C   0  0  0  0  0  0  0  0  0  0  0  0
   -3.0293   -0.5060    0.8231 C   0  0  0  0  0  0  0  0  0  0  0  0
    0.5553   -1.0070    1.1160 C   0  0  0  0  0  0  0  0  0  0  0  0
    1.2617   -1.6286    1.9566 O   0  0  0  0  0  0  0  0  0  0  0  0
    3.0515   -0.7329   -1.3254 C   0  0  0  0  0  0  0  0  0  0  0  0
    4.4223   -0.6747   -1.4738 C   0  0  0  0  0  0  0  0  0  0  0  0
    7.0632    1.2336    0.8611 H   0  0  0  0  0  0  0  0  0  0  0  0
    8.4631    0.5185   -0.0816 H   0  0  0  0  0  0  0  0  0  0  0  0
    7.6610   -0.4965    1.1329 H   0  0  0  0  0  0  0  0  0  0  0  0
    5.2418    0.5712    1.5008 H   0  0  0  0  0  0  0  0  0  0  0  0
    2.8451    0.4823    1.7931 H   0  0  0  0  0  0  0  0  0  0  0  0
    0.5513    0.8261   -1.6236 H   0  0  0  0  0  0  0  0  0  0  0  0
   -6.7056   -1.0032    2.0726 H   0  0  0  0  0  0  0  0  0  0  0  0
   -6.2460    0.2989    0.0565 H   0  0  0  0  0  0  0  0  0  0  0  0
   -4.3707    0.0077   -2.9274 H   0  0  0  0  0  0  0  0  0  0  0  0
   -3.1125   -0.8838   -2.0778 H   0  0  0  0  0  0  0  0  0  0  0  0
   -2.6757    0.7038   -2.7650 H   0  0  0  0  0  0  0  0  0  0  0  0
   -5.1040    2.4313   -1.8571 H   0  0  0  0  0  0  0  0  0  0  0  0
   -3.3556    2.6902   -1.6611 H   0  0  0  0  0  0  0  0  0  0  0  0
   -4.4216    2.6994   -0.1871 H   0  0  0  0  0  0  0  0  0  0  0  0
    2.4401   -1.1033   -2.1303 H   0  0  0  0  0  0  0  0  0  0  0  0
    4.9187   -0.9925   -2.3847 H   0  0  0  0  0  0  0  0  0  0  0  0
  1  2  1  0
  2  3  1  0
  3  4  2  0
  4  5  1  0
  5  6  2  0
  6  7  1  0
  7  8  1  0
  8  9  2  0
  9 10  1  0
 10 11  2  0
 11 12  1  0
 12 13  1  0
 13 14  2  0
 14 15  1  0
 15 16  2  0
 16 17  1  0
 17 18  1  0
 18 19  1  0
 18 20  1  0
 17 21  2  0
 11 22  1  0
 22 23  2  0
  6 24  1  0
 24 25  2  0
 25  3  1  0
 22  7  1  0
 21 10  1  0
 21 13  1  0
  1 26  1  0
  1 27  1  0
  1 28  1  0
  4 29  1  0
  5 30  1  0
  8 31  1  0
 15 32  1  0
 16 33  1  0
 19 34  1  0
 19 35  1  0
 19 36  1  0
 20 37  1  0
 20 38  1  0
 20 39  1  0
 24 40  1  0
 25 41  1  0
M  END
$$$$
