
     RDKit          3D

 12 12  0  0  0  0  0  0  0  0999 V2000
   -2.1024   -1.4282    0.0942 O   0  0  0  0  0  0  0  0  0  0  0  0
   -1.0709   -0.6966    0.0472 C   0  0  0  0  0  0  0  0  0  0  0  0
   -1.2535    0.6342    0.0184 N   0  0  0  0  0  0  0  0  0  0  0  0
   -0.1397    1.3856   -0.0314 C   0  0  0  0  0  0  0  0  0  0  0  0
    1.1155    0.7757   -0.0504 C   0  0  0  0  0  0  0  0  0  0  0  0
    1.2352   -0.6152   -0.0184 C   0  0  0  0  0  0  0  0  0  0  0  0
    2.3677   -1.1629   -0.0357 O   0  0  0  0  0  0  0  0  0  0  0  0
    0.1081   -1.3565    0.0315 N   0  0  0  0  0  0  0  0  0  0  0  0
   -2.2188    1.0301    0.0349 H   0  0  0  0  0  0  0  0  0  0  0  0
   -0.2067    2.4537   -0.0566 H   0  0  0  0  0  0  0  0  0  0  0  0
    2.0173    1.3660   -0.0903 H   0  0  0  0  0  0  0  0  0  0  0  0
    0.1483   -2.3858    0.0565 H   0  0  0  0  0  0  0  0  0  0  0  0
  1  2  2  0
  2  3  1  0
  3  4  1  0
  4  5  2  0
  5  6  1  0
  6  7  2  0
  6  8  1  0
  8  2  1  0
  3  9  1  0
  4 10  1  0
  5 11  1  0
  8 12  1  0
M  END
$$$$
