
     RDKit          3D

 30 32  0  0  0  0  0  0  0  0999 V2000
   -6.0300   -0.8904    0.8463 O   0  0  0  0  0  0  0  0  0  0  0  0
   -5.2119   -0.4168   -0.0013 C   0  0  0  0  0  0  0  0  0  0  0  0
   -5.5282    0.1409   -1.2101 O   0  0  0  0  0  0  0  0  0  0  0  0
   -4.3636    0.5587   -1.8847 C   0  0  0  0  0  0  0  0  0  0  0  0
   -3.2627    0.1933   -0.9454 C   0  0  0  0  0  0  0  0  0  0  0  0
   -1.8765    0.3394   -1.0202 C   0  0  0  0  0  0  0  0  0  0  0  0
   -1.0242   -0.0744   -0.0217 C   0  0  0  0  0  0  0  0  0  0  0  0
    0.3537    0.1084   -0.1737 O   0  0  0  0  0  0  0  0  0  0  0  0
    1.2504   -0.3084    0.8385 C   0  0  0  0  0  0  0  0  0  0  0  0
    2.6582   -0.0175    0.4669 C   0  0  0  0  0  0  0  0  0  0  0  0
    3.2602    1.1900    0.7994 C   0  0  0  0  0  0  0  0  0  0  0  0
    4.5687    1.4685    0.4577 C   0  0  0  0  0  0  0  0  0  0  0  0
    5.2945    0.5144   -0.2348 C   0  0  0  0  0  0  0  0  0  0  0  0
    4.7331   -0.6980   -0.5841 C   0  0  0  0  0  0  0  0  0  0  0  0
    3.4352   -0.9271   -0.2237 C   0  0  0  0  0  0  0  0  0  0  0  0
   -1.5722   -0.6529    1.0880 C   0  0  0  0  0  0  0  0  0  0  0  0
   -2.9321   -0.8278    1.2266 C   0  0  0  0  0  0  0  0  0  0  0  0
   -3.7684   -0.3960    0.1934 C   0  0  0  0  0  0  0  0  0  0  0  0
   -4.2411    0.0405   -2.8580 H   0  0  0  0  0  0  0  0  0  0  0  0
   -4.4321    1.6598   -2.0156 H   0  0  0  0  0  0  0  0  0  0  0  0
   -1.4554    0.7950   -1.8957 H   0  0  0  0  0  0  0  0  0  0  0  0
    0.9796    0.1230    1.8312 H   0  0  0  0  0  0  0  0  0  0  0  0
    1.1326   -1.4085    0.9475 H   0  0  0  0  0  0  0  0  0  0  0  0
    2.6928    1.9490    1.3468 H   0  0  0  0  0  0  0  0  0  0  0  0
    5.0156    2.4219    0.7304 H   0  0  0  0  0  0  0  0  0  0  0  0
    6.3271    0.7228   -0.5096 H   0  0  0  0  0  0  0  0  0  0  0  0
    5.2950   -1.4420   -1.1226 H   0  0  0  0  0  0  0  0  0  0  0  0
    3.0090   -1.8933   -0.5096 H   0  0  0  0  0  0  0  0  0  0  0  0
   -0.9319   -0.9879    1.8881 H   0  0  0  0  0  0  0  0  0  0  0  0
   -3.3756   -1.2846    2.1010 H   0  0  0  0  0  0  0  0  0  0  0  0
  1  2  2  0
  2  3  1  0
  3  4  1  0
  4  5  1  0
  5  6  2  0
  6  7  1  0
  7  8  1  0
  8  9  1  0
  9 10  1  0
 10 11  2  0
 11 12  1  0
 12 13  2  0
 13 14  1  0
 14 15  2  0
  7 16  2  0
 16 17  1  0
 17 18  2  0
 18  2  1  0
 18  5  1  0
 15 10  1  0
  4 19  1  0
  4 20  1  0
  6 21  1  0
  9 22  1  0
  9 23  1  0
 11 24  1  0
 12 25  1  0
 13 26  1  0
 14 27  1  0
 15 28  1  0
 16 29  1  0
 17 30  1  0
M  END
$$$$
