
     RDKit          3D

 44 48  0  0  0  0  0  0  0  0999 V2000
    5.9746   -3.0722   -0.1109 O   0  0  0  0  0  0  0  0  0  0  0  0
    5.6765   -1.8521   -0.1299 C   0  0  0  0  0  0  0  0  0  0  0  0
    6.5622   -0.7573   -0.2078 N   0  0  0  0  0  0  0  0  0  0  0  0
    5.7739    0.4183   -0.2006 C   0  0  0  0  0  0  0  0  0  0  0  0
    6.1799    1.7376   -0.2747 C   0  0  0  0  0  0  0  0  0  0  0  0
    5.2301    2.7305   -0.2727 C   0  0  0  0  0  0  0  0  0  0  0  0
    3.8882    2.4461   -0.1990 C   0  0  0  0  0  0  0  0  0  0  0  0
    3.4792    1.1083   -0.1234 C   0  0  0  0  0  0  0  0  0  0  0  0
    4.4091    0.1114   -0.1215 C   0  0  0  0  0  0  0  0  0  0  0  0
    4.3113   -1.3314   -0.0727 C   0  0  0  0  0  0  0  0  0  0  0  0
    3.2044   -2.0259   -0.0310 C   0  0  0  0  0  0  0  0  0  0  0  0
    1.8553   -1.5224    0.0377 C   0  0  0  0  0  0  0  0  0  0  0  0
    0.9241   -1.6749   -0.9935 C   0  0  0  0  0  0  0  0  0  0  0  0
   -0.3881   -1.2725   -0.8520 C   0  0  0  0  0  0  0  0  0  0  0  0
   -0.8093   -0.7052    0.3255 C   0  0  0  0  0  0  0  0  0  0  0  0
   -2.0497   -0.2144    0.7389 C   0  0  0  0  0  0  0  0  0  0  0  0
   -3.2840   -0.2065   -0.0450 C   0  0  0  0  0  0  0  0  0  0  0  0
   -4.3693    0.3092    0.4732 C   0  0  0  0  0  0  0  0  0  0  0  0
   -5.6489    0.3842   -0.1753 C   0  0  0  0  0  0  0  0  0  0  0  0
   -5.8918   -0.0954   -1.4302 C   0  0  0  0  0  0  0  0  0  0  0  0
   -7.1700    0.0225   -1.9697 C   0  0  0  0  0  0  0  0  0  0  0  0
   -8.1783    0.6008   -1.2839 N   0  0  0  0  0  0  0  0  0  0  0  0
   -7.9806    1.0847   -0.0491 C   0  0  0  0  0  0  0  0  0  0  0  0
   -6.7081    0.9697    0.4946 C   0  0  0  0  0  0  0  0  0  0  0  0
   -1.8321    0.2160    1.9931 N   0  0  0  0  0  0  0  0  0  0  0  0
   -0.5834    0.0272    2.3633 N   0  0  0  0  0  0  0  0  0  0  0  0
    0.0836   -0.5478    1.3427 C   0  0  0  0  0  0  0  0  0  0  0  0
    1.3934   -0.9476    1.2068 C   0  0  0  0  0  0  0  0  0  0  0  0
    7.6227   -0.8324   -0.2603 H   0  0  0  0  0  0  0  0  0  0  0  0
    7.2323    1.9603   -0.3336 H   0  0  0  0  0  0  0  0  0  0  0  0
    5.5574    3.7615   -0.3309 H   0  0  0  0  0  0  0  0  0  0  0  0
    3.1654    3.2460   -0.2009 H   0  0  0  0  0  0  0  0  0  0  0  0
    2.4419    0.9659   -0.1002 H   0  0  0  0  0  0  0  0  0  0  0  0
    3.3565   -3.1331   -0.0558 H   0  0  0  0  0  0  0  0  0  0  0  0
    1.2626   -2.1221   -1.9218 H   0  0  0  0  0  0  0  0  0  0  0  0
   -1.1260   -1.3878   -1.6560 H   0  0  0  0  0  0  0  0  0  0  0  0
   -3.3239   -0.6118   -1.0369 H   0  0  0  0  0  0  0  0  0  0  0  0
   -4.2607    0.7109    1.4967 H   0  0  0  0  0  0  0  0  0  0  0  0
   -5.1085   -0.5628   -2.0091 H   0  0  0  0  0  0  0  0  0  0  0  0
   -7.3966   -0.3459   -2.9546 H   0  0  0  0  0  0  0  0  0  0  0  0
   -8.7712    1.5556    0.5285 H   0  0  0  0  0  0  0  0  0  0  0  0
   -6.5594    1.3681    1.5006 H   0  0  0  0  0  0  0  0  0  0  0  0
   -0.2076    0.2893    3.2930 H   0  0  0  0  0  0  0  0  0  0  0  0
    2.0628   -0.8025    2.0373 H   0  0  0  0  0  0  0  0  0  0  0  0
  1  2  2  0
  2  3  1  0
  3  4  1  0
  4  5  2  0
  5  6  1  0
  6  7  2  0
  7  8  1  0
  8  9  2  0
  9 10  1  0
 10 11  2  0
 11 12  1  0
 12 13  2  0
 13 14  1  0
 14 15  2  0
 15 16  1  0
 16 17  1  0
 17 18  2  0
 18 19  1  0
 19 20  2  0
 20 21  1  0
 21 22  2  0
 22 23  1  0
 23 24  2  0
 16 25  2  0
 25 26  1  0
 26 27  1  0
 27 28  2  0
 10  2  1  0
 28 12  1  0
  9  4  1  0
 27 15  1  0
 24 19  1  0
  3 29  1  0
  5 30  1  0
  6 31  1  0
  7 32  1  0
  8 33  1  0
 11 34  1  0
 13 35  1  0
 14 36  1  0
 17 37  1  0
 18 38  1  0
 20 39  1  0
 21 40  1  0
 23 41  1  0
 24 42  1  0
 26 43  1  0
 28 44  1  0
M  END
$$$$
