
     RDKit          3D

 65 67  0  0  0  0  0  0  0  0999 V2000
    7.8087    0.7343    0.9460 C   0  0  0  0  0  0  0  0  0  0  0  0
    6.3024    0.8465    0.6992 C   0  0  0  0  0  0  0  0  0  0  0  0
    5.9812    1.9494   -0.2429 C   0  0  0  0  0  0  0  0  0  0  0  0
    4.2481    2.1211   -0.4730 S   0  0  0  0  0  6  0  0  0  0  0  0
    3.6846    2.4968    0.9082 O   0  0  0  0  0  0  0  0  0  0  0  0
    4.0542    3.3547   -1.3381 O   0  0  0  0  0  0  0  0  0  0  0  0
    3.5266    0.7607   -1.0985 N   0  0  0  0  0  0  0  0  0  0  0  0
    3.5280   -0.4596   -0.4121 C   0  0  0  0  0  0  0  0  0  0  0  0
    2.1544   -1.1536   -0.4496 C   0  0  0  0  0  0  0  0  0  0  0  0
    1.1103   -0.2484   -0.5910 N   0  0  0  0  0  0  0  0  0  0  0  0
   -0.2383   -0.6807   -0.1905 C   0  0  0  0  0  0  0  0  0  0  0  0
   -1.0418    0.5755   -0.2966 C   0  0  0  0  0  0  0  0  0  0  0  0
   -2.4151    0.6005    0.0637 N   0  0  0  0  0  0  0  0  0  0  0  0
   -3.5545    0.0266   -0.4878 C   0  0  0  0  0  0  0  0  0  0  0  0
   -3.3558   -0.6592   -1.5448 O   0  0  0  0  0  0  0  0  0  0  0  0
   -4.9384    0.0978   -0.0383 C   0  0  0  0  0  0  0  0  0  0  0  0
   -5.8997   -0.6945   -0.6814 C   0  0  0  0  0  0  0  0  0  0  0  0
   -7.2081   -0.7462   -0.2630 C   0  0  0  0  0  0  0  0  0  0  0  0
   -7.6589   -0.0232    0.8144 C   0  0  0  0  0  0  0  0  0  0  0  0
   -6.7386    0.7592    1.4573 C   0  0  0  0  0  0  0  0  0  0  0  0
   -5.3950    0.8102    1.0225 C   0  0  0  0  0  0  0  0  0  0  0  0
   -4.5462    1.6592    1.7519 O   0  0  0  0  0  0  0  0  0  0  0  0
   -4.5908    3.0280    1.2821 C   0  0  0  0  0  0  0  0  0  0  0  0
   -3.7548    3.8399    1.9965 F   0  0  0  0  0  0  0  0  0  0  0  0
   -5.8713    3.5246    1.4476 F   0  0  0  0  0  0  0  0  0  0  0  0
   -4.2992    3.0209   -0.0589 F   0  0  0  0  0  0  0  0  0  0  0  0
   -0.6108   -1.7365   -1.1206 C   0  0  0  0  0  0  0  0  0  0  0  0
   -1.3666   -2.9066   -0.5440 C   0  0  0  0  0  0  0  0  0  0  0  0
   -0.5012   -3.4667    0.5772 C   0  0  0  0  0  0  0  0  0  0  0  0
   -0.5292   -2.4318    1.6494 C   0  0  0  0  0  0  0  0  0  0  0  0
   -0.2094   -1.0481    1.2713 C   0  0  0  0  0  0  0  0  0  0  0  0
    1.1899    0.7259   -1.5908 C   0  0  0  0  0  0  0  0  0  0  0  0
    2.5911    0.9011   -2.1517 C   0  0  0  0  0  0  0  0  0  0  0  0
    8.1011    1.4969    1.6936 H   0  0  0  0  0  0  0  0  0  0  0  0
    8.3317    0.8646   -0.0199 H   0  0  0  0  0  0  0  0  0  0  0  0
    7.9863   -0.2849    1.3468 H   0  0  0  0  0  0  0  0  0  0  0  0
    6.0591   -0.1139    0.1872 H   0  0  0  0  0  0  0  0  0  0  0  0
    5.7698    0.9601    1.6348 H   0  0  0  0  0  0  0  0  0  0  0  0
    6.4133    2.9322    0.0713 H   0  0  0  0  0  0  0  0  0  0  0  0
    6.4950    1.7489   -1.2292 H   0  0  0  0  0  0  0  0  0  0  0  0
    4.2724   -1.1471   -0.8468 H   0  0  0  0  0  0  0  0  0  0  0  0
    3.8070   -0.2974    0.6483 H   0  0  0  0  0  0  0  0  0  0  0  0
    2.2261   -1.8393   -1.3110 H   0  0  0  0  0  0  0  0  0  0  0  0
    2.0841   -1.7262    0.4832 H   0  0  0  0  0  0  0  0  0  0  0  0
   -1.0119    0.9804   -1.3635 H   0  0  0  0  0  0  0  0  0  0  0  0
   -0.4879    1.4180    0.2525 H   0  0  0  0  0  0  0  0  0  0  0  0
   -2.5948    1.1657    0.9710 H   0  0  0  0  0  0  0  0  0  0  0  0
   -5.5535   -1.2709   -1.5359 H   0  0  0  0  0  0  0  0  0  0  0  0
   -7.9178   -1.3717   -0.7886 H   0  0  0  0  0  0  0  0  0  0  0  0
   -8.6851   -0.0630    1.1458 H   0  0  0  0  0  0  0  0  0  0  0  0
   -7.0335    1.3471    2.3065 H   0  0  0  0  0  0  0  0  0  0  0  0
    0.3541   -2.2671   -1.5068 H   0  0  0  0  0  0  0  0  0  0  0  0
   -1.0686   -1.4484   -2.0623 H   0  0  0  0  0  0  0  0  0  0  0  0
   -1.4848   -3.6643   -1.3400 H   0  0  0  0  0  0  0  0  0  0  0  0
   -2.3318   -2.6755   -0.1117 H   0  0  0  0  0  0  0  0  0  0  0  0
   -1.0385   -4.3705    0.9647 H   0  0  0  0  0  0  0  0  0  0  0  0
    0.4941   -3.7552    0.2380 H   0  0  0  0  0  0  0  0  0  0  0  0
   -1.5543   -2.4987    2.1233 H   0  0  0  0  0  0  0  0  0  0  0  0
    0.1451   -2.8015    2.4752 H   0  0  0  0  0  0  0  0  0  0  0  0
   -0.8988   -0.3765    1.8685 H   0  0  0  0  0  0  0  0  0  0  0  0
    0.7933   -0.7916    1.7293 H   0  0  0  0  0  0  0  0  0  0  0  0
    0.5654    0.4694   -2.4703 H   0  0  0  0  0  0  0  0  0  0  0  0
    0.8520    1.7086   -1.2245 H   0  0  0  0  0  0  0  0  0  0  0  0
    2.8090    0.1793   -2.9419 H   0  0  0  0  0  0  0  0  0  0  0  0
    2.6470    1.9148   -2.5799 H   0  0  0  0  0  0  0  0  0  0  0  0
  1  2  1  0
  2  3  1  0
  3  4  1  0
  4  5  2  0
  4  6  2  0
  4  7  1  0
  7  8  1  0
  8  9  1  0
  9 10  1  0
 10 11  1  0
 11 12  1  0
 12 13  1  0
 13 14  1  0
 14 15  2  0
 14 16  1  0
 16 17  2  0
 17 18  1  0
 18 19  2  0
 19 20  1  0
 20 21  2  0
 21 22  1  0
 22 23  1  0
 23 24  1  0
 23 25  1  0
 23 26  1  0
 11 27  1  0
 27 28  1  0
 28 29  1  0
 29 30  1  0
 30 31  1  0
 10 32  1  0
 32 33  1  0
 33  7  1  0
 31 11  1  0
 21 16  1  0
  1 34  1  0
  1 35  1  0
  1 36  1  0
  2 37  1  0
  2 38  1  0
  3 39  1  0
  3 40  1  0
  8 41  1  0
  8 42  1  0
  9 43  1  0
  9 44  1  0
 12 45  1  0
 12 46  1  0
 13 47  1  0
 17 48  1  0
 18 49  1  0
 19 50  1  0
 20 51  1  0
 27 52  1  0
 27 53  1  0
 28 54  1  0
 28 55  1  0
 29 56  1  0
 29 57  1  0
 30 58  1  0
 30 59  1  0
 31 60  1  0
 31 61  1  0
 32 62  1  0
 32 63  1  0
 33 64  1  0
 33 65  1  0
M  END
$$$$
