
     RDKit          3D

 51 55  0  0  0  0  0  0  0  0999 V2000
   -3.7977   -1.0330   -2.2700 C   0  0  0  0  0  0  0  0  0  0  0  0
   -3.6835    0.0864   -1.2619 C   0  0  2  0  0  0  0  0  0  0  0  0
   -3.8224    1.4494   -1.9548 C   0  0  0  0  0  0  0  0  0  0  0  0
   -4.1435    2.5237   -0.9821 C   0  0  0  0  0  0  0  0  0  0  0  0
   -5.1651    3.1904   -1.2884 O   0  0  0  0  0  0  0  0  0  0  0  0
   -3.4832    2.9118    0.2280 N   0  0  0  0  0  0  0  0  0  0  0  0
   -2.5321    2.0958    0.9304 C   0  0  0  0  0  0  0  0  0  0  0  0
   -2.0549    2.6982    2.0636 C   0  0  0  0  0  0  0  0  0  0  0  0
   -1.1434    2.0240    2.8227 C   0  0  0  0  0  0  0  0  0  0  0  0
   -0.7016    0.7877    2.4904 C   0  0  0  0  0  0  0  0  0  0  0  0
   -1.1538    0.1170    1.3403 C   0  0  0  0  0  0  0  0  0  0  0  0
   -0.6949   -1.1798    1.0218 N   0  0  0  0  0  0  0  0  0  0  0  0
   -1.4010   -2.4390    0.9685 C   0  0  0  0  0  0  0  0  0  0  0  0
   -0.3451   -3.4773    1.3881 C   0  0  0  0  0  0  0  0  0  0  0  0
    0.8861   -2.8367    0.8745 C   0  0  0  0  0  0  0  0  0  0  0  0
    2.1675   -3.3176    0.5764 C   0  0  0  0  0  0  0  0  0  0  0  0
    3.1697   -2.4973    0.1049 C   0  0  0  0  0  0  0  0  0  0  0  0
    2.9413   -1.1525   -0.0928 C   0  0  0  0  0  0  0  0  0  0  0  0
    4.0120   -0.2855   -0.5941 C   0  0  0  0  0  0  0  0  0  0  0  0
    5.3783   -0.4213   -0.3609 C   0  0  0  0  0  0  0  0  0  0  0  0
    6.0303    0.5534   -0.9797 N   0  0  0  0  0  0  0  0  0  0  0  0
    5.1385    1.3094   -1.6006 N   0  0  0  0  0  0  0  0  0  0  0  0
    5.5359    2.4772   -2.3808 C   0  0  0  0  0  0  0  0  0  0  0  0
    3.8994    0.8340   -1.3917 C   0  0  0  0  0  0  0  0  0  0  0  0
    1.6832   -0.6723    0.1980 C   0  0  0  0  0  0  0  0  0  0  0  0
    0.6538   -1.4924    0.6777 C   0  0  0  0  0  0  0  0  0  0  0  0
   -2.0780    0.8206    0.5847 C   0  0  0  0  0  0  0  0  0  0  0  0
   -2.4425    0.0568   -0.5501 N   0  0  0  0  0  0  0  0  0  0  0  0
   -2.7373   -1.2813   -2.5686 H   0  0  0  0  0  0  0  0  0  0  0  0
   -4.4187   -0.7813   -3.1300 H   0  0  0  0  0  0  0  0  0  0  0  0
   -4.1847   -1.9661   -1.8098 H   0  0  0  0  0  0  0  0  0  0  0  0
   -4.5726    0.0070   -0.6047 H   0  0  0  0  0  0  0  0  0  0  0  0
   -4.6545    1.3166   -2.6702 H   0  0  0  0  0  0  0  0  0  0  0  0
   -2.8479    1.6114   -2.4652 H   0  0  0  0  0  0  0  0  0  0  0  0
   -3.7016    3.8318    0.6212 H   0  0  0  0  0  0  0  0  0  0  0  0
   -2.4133    3.6761    2.3143 H   0  0  0  0  0  0  0  0  0  0  0  0
   -0.7393    2.4734    3.7345 H   0  0  0  0  0  0  0  0  0  0  0  0
    0.0318    0.2599    3.1127 H   0  0  0  0  0  0  0  0  0  0  0  0
   -2.2729   -2.4764    1.6555 H   0  0  0  0  0  0  0  0  0  0  0  0
   -1.6813   -2.7738   -0.0486 H   0  0  0  0  0  0  0  0  0  0  0  0
   -0.4771   -4.4301    0.8782 H   0  0  0  0  0  0  0  0  0  0  0  0
   -0.3558   -3.5534    2.4936 H   0  0  0  0  0  0  0  0  0  0  0  0
    2.3422   -4.3603    0.7306 H   0  0  0  0  0  0  0  0  0  0  0  0
    4.1642   -2.8602   -0.1287 H   0  0  0  0  0  0  0  0  0  0  0  0
    5.8368   -1.1988    0.2314 H   0  0  0  0  0  0  0  0  0  0  0  0
    4.8024    2.6724   -3.1889 H   0  0  0  0  0  0  0  0  0  0  0  0
    5.6692    3.3432   -1.7058 H   0  0  0  0  0  0  0  0  0  0  0  0
    6.5329    2.2869   -2.8487 H   0  0  0  0  0  0  0  0  0  0  0  0
    2.9745    1.2488   -1.7761 H   0  0  0  0  0  0  0  0  0  0  0  0
    1.5145    0.3979    0.0366 H   0  0  0  0  0  0  0  0  0  0  0  0
   -1.6647   -0.5746   -0.8486 H   0  0  0  0  0  0  0  0  0  0  0  0
  1  2  1  0
  2  3  1  0
  3  4  1  0
  4  5  2  0
  4  6  1  0
  6  7  1  0
  7  8  2  0
  8  9  1  0
  9 10  2  0
 10 11  1  0
 11 12  1  0
 12 13  1  0
 13 14  1  0
 14 15  1  0
 15 16  2  0
 16 17  1  0
 17 18  2  0
 18 19  1  0
 19 20  1  0
 20 21  2  0
 21 22  1  0
 22 23  1  0
 22 24  1  0
 18 25  1  0
 25 26  2  0
 11 27  2  0
 27 28  1  0
 28  2  1  0
 27  7  1  0
 26 12  1  0
 26 15  1  0
 24 19  2  0
  1 29  1  0
  1 30  1  0
  1 31  1  0
  2 32  1  1
  3 33  1  0
  3 34  1  0
  6 35  1  0
  8 36  1  0
  9 37  1  0
 10 38  1  0
 13 39  1  0
 13 40  1  0
 14 41  1  0
 14 42  1  0
 16 43  1  0
 17 44  1  0
 20 45  1  0
 23 46  1  0
 23 47  1  0
 23 48  1  0
 24 49  1  0
 25 50  1  0
 28 51  1  0
M  END
$$$$
