
     RDKit          3D

 43 45  0  0  0  0  0  0  0  0999 V2000
    4.4677   -2.5454    2.3622 O   0  0  0  0  0  0  0  0  0  0  0  0
    4.4099   -1.2760    1.5272 S   0  0  0  0  0  6  0  0  0  0  0  0
    5.0052   -0.1893    2.3839 O   0  0  0  0  0  0  0  0  0  0  0  0
    5.4005   -1.5035    0.1382 N   0  0  0  0  0  0  0  0  0  0  0  0
    6.4518   -0.5183   -0.0661 C   0  0  0  0  0  0  0  0  0  0  0  0
    6.9489    0.4335    0.3596 N   0  0  0  0  0  0  0  0  0  0  0  0
    7.9624    1.1389   -0.1050 C   0  0  0  0  0  0  0  0  0  0  0  0
    8.4914    0.6641   -1.2613 C   0  0  0  0  0  0  0  0  0  0  0  0
    7.5281   -0.7585   -1.6270 S   0  0  0  0  0  0  0  0  0  0  0  0
    2.7769   -0.9401    1.0583 C   0  0  0  0  0  0  0  0  0  0  0  0
    2.1912    0.2663    1.3428 C   0  0  0  0  0  0  0  0  0  0  0  0
    0.9158    0.5152    0.9687 C   0  0  0  0  0  0  0  0  0  0  0  0
    0.1732    2.0698    1.3339 Cl  0  0  0  0  0  0  0  0  0  0  0  0
    0.1340   -0.4700    0.2638 C   0  0  0  0  0  0  0  0  0  0  0  0
   -1.1218   -0.0344   -0.0451 N   0  0  0  0  0  0  0  0  0  0  0  0
   -2.3862    0.4043   -0.3562 C   0  0  0  0  0  0  0  0  0  0  0  0
   -3.4601   -0.2956    0.4394 C   0  0  0  0  0  0  0  0  0  0  0  0
   -4.8487    0.0948    0.1521 C   0  0  0  0  0  0  0  0  0  0  0  0
   -5.3270   -0.1310   -1.2531 C   0  0  0  0  0  0  0  0  0  0  0  0
   -6.3862    0.9374   -1.4376 C   0  0  0  0  0  0  0  0  0  0  0  0
   -6.4467    1.7065   -0.2338 N   0  0  0  0  0  0  0  0  0  0  0  0
   -5.1648    1.5417    0.4657 C   0  0  0  0  0  0  0  0  0  0  0  0
    0.7663   -1.6441    0.0110 C   0  0  0  0  0  0  0  0  0  0  0  0
    2.0748   -1.8991    0.3948 C   0  0  0  0  0  0  0  0  0  0  0  0
    2.6341   -3.1209    0.0914 F   0  0  0  0  0  0  0  0  0  0  0  0
    5.2408   -2.2903   -0.4846 H   0  0  0  0  0  0  0  0  0  0  0  0
    8.3415    2.0407    0.4190 H   0  0  0  0  0  0  0  0  0  0  0  0
    9.3657    1.0966   -1.8629 H   0  0  0  0  0  0  0  0  0  0  0  0
    2.7967    1.0249    1.8802 H   0  0  0  0  0  0  0  0  0  0  0  0
   -1.4482   -1.2304   -0.6013 H   0  0  0  0  0  0  0  0  0  0  0  0
   -2.6715    0.4922   -1.4359 H   0  0  0  0  0  0  0  0  0  0  0  0
   -2.4628    1.4969   -0.0176 H   0  0  0  0  0  0  0  0  0  0  0  0
   -3.2761   -0.1216    1.5328 H   0  0  0  0  0  0  0  0  0  0  0  0
   -3.3218   -1.3914    0.2812 H   0  0  0  0  0  0  0  0  0  0  0  0
   -5.5166   -0.5196    0.8252 H   0  0  0  0  0  0  0  0  0  0  0  0
   -4.5872   -0.0028   -2.0380 H   0  0  0  0  0  0  0  0  0  0  0  0
   -5.7957   -1.1536   -1.3424 H   0  0  0  0  0  0  0  0  0  0  0  0
   -6.2408    1.5610   -2.3289 H   0  0  0  0  0  0  0  0  0  0  0  0
   -7.3847    0.4208   -1.5350 H   0  0  0  0  0  0  0  0  0  0  0  0
   -6.6660    2.7137   -0.3579 H   0  0  0  0  0  0  0  0  0  0  0  0
   -5.4214    1.6483    1.5471 H   0  0  0  0  0  0  0  0  0  0  0  0
   -4.3920    2.2282    0.1078 H   0  0  0  0  0  0  0  0  0  0  0  0
    0.2492   -2.4599   -0.5292 H   0  0  0  0  0  0  0  0  0  0  0  0
  1  2  2  0
  2  3  2  0
  2  4  1  0
  4  5  1  0
  5  6  2  0
  6  7  1  0
  7  8  2  0
  8  9  1  0
  2 10  1  0
 10 11  2  0
 11 12  1  0
 12 13  1  0
 12 14  2  0
 14 15  1  0
 15 16  1  0
 16 17  1  0
 17 18  1  0
 18 19  1  0
 19 20  1  0
 20 21  1  0
 21 22  1  0
 14 23  1  0
 23 24  2  0
 24 25  1  0
  9  5  1  0
 24 10  1  0
 22 18  1  0
  4 26  1  0
  7 27  1  0
  8 28  1  0
 11 29  1  0
 15 30  1  0
 16 31  1  0
 16 32  1  0
 17 33  1  0
 17 34  1  0
 18 35  1  0
 19 36  1  0
 19 37  1  0
 20 38  1  0
 20 39  1  0
 21 40  1  0
 22 41  1  0
 22 42  1  0
 23 43  1  0
M  END
$$$$
