
     RDKit          3D

 57 61  0  0  0  0  0  0  0  0999 V2000
    3.8780    1.7302   -1.9631 C   0  0  0  0  0  0  0  0  0  0  0  0
    2.8644    0.8984   -1.3143 N   0  0  0  0  0  0  0  0  0  0  0  0
    1.5671    1.2424   -1.2994 C   0  0  0  0  0  0  0  0  0  0  0  0
    1.2049    2.2881   -1.8507 O   0  0  0  0  0  0  0  0  0  0  0  0
    0.6478    0.4164   -0.6656 C   0  0  0  0  0  0  0  0  0  0  0  0
    1.0753   -0.7465   -0.0606 C   0  0  0  0  0  0  0  0  0  0  0  0
    0.0312   -1.3575    0.4582 N   0  0  0  0  0  0  0  0  0  0  0  0
   -1.1157   -0.6308    0.2193 C   0  0  0  0  0  0  0  0  0  0  0  0
   -2.4126   -1.0716    0.5902 N   0  0  0  0  0  0  0  0  0  0  0  0
   -3.6712   -0.4913    0.3041 C   0  0  0  0  0  0  0  0  0  0  0  0
   -4.7774   -1.3315    0.9888 C   0  0  0  0  0  0  0  0  0  0  0  0
   -4.7175   -2.7707    0.5600 C   0  0  0  0  0  0  0  0  0  0  0  0
   -3.2946   -3.2942    0.5340 C   0  0  1  0  0  0  0  0  0  0  0  0
   -2.7656   -3.2548   -0.8178 N   0  0  0  0  0  0  0  0  0  0  0  0
   -2.4860   -2.3287    1.3753 C   0  0  0  0  0  0  0  0  0  0  0  0
   -0.7026    0.4469   -0.4637 N   0  0  0  0  0  0  0  0  0  0  0  0
   -1.5050    1.5656   -0.8573 C   0  0  0  0  0  0  0  0  0  0  0  0
   -1.3765    2.8080   -0.0750 C   0  0  0  0  0  0  0  0  0  0  0  0
   -1.1299    4.0164   -0.7604 C   0  0  0  0  0  0  0  0  0  0  0  0
   -1.0880    5.2378   -0.1446 C   0  0  0  0  0  0  0  0  0  0  0  0
   -0.8473    6.3764   -0.8393 F   0  0  0  0  0  0  0  0  0  0  0  0
   -1.2923    5.3420    1.2200 C   0  0  0  0  0  0  0  0  0  0  0  0
   -1.5307    4.2028    1.9122 C   0  0  0  0  0  0  0  0  0  0  0  0
   -1.5696    2.9541    1.2658 C   0  0  0  0  0  0  0  0  0  0  0  0
   -1.8018    1.5971    2.3414 Cl  0  0  0  0  0  0  0  0  0  0  0  0
    2.4134   -1.0604   -0.0996 C   0  0  0  0  0  0  0  0  0  0  0  0
    2.8932   -2.2101    0.4928 C   0  0  0  0  0  0  0  0  0  0  0  0
    4.2467   -2.5333    0.4597 C   0  0  0  0  0  0  0  0  0  0  0  0
    5.1591   -1.7124   -0.1693 C   0  0  0  0  0  0  0  0  0  0  0  0
    6.5824   -2.0490   -0.2041 C   0  0  0  0  0  0  0  0  0  0  0  0
    7.3676   -1.2623   -0.7897 O   0  0  0  0  0  0  0  0  0  0  0  0
    7.1007   -3.1839    0.3734 O   0  0  0  0  0  0  0  0  0  0  0  0
    4.6826   -0.5627   -0.7623 C   0  0  0  0  0  0  0  0  0  0  0  0
    3.3364   -0.2339   -0.7334 C   0  0  0  0  0  0  0  0  0  0  0  0
    4.4493    1.1827   -2.7259 H   0  0  0  0  0  0  0  0  0  0  0  0
    3.3392    2.5432   -2.4755 H   0  0  0  0  0  0  0  0  0  0  0  0
    4.5198    2.1130   -1.1325 H   0  0  0  0  0  0  0  0  0  0  0  0
   -3.9390   -0.5901   -0.7877 H   0  0  0  0  0  0  0  0  0  0  0  0
   -3.8404    0.5209    0.6596 H   0  0  0  0  0  0  0  0  0  0  0  0
   -4.7549   -1.1654    2.0690 H   0  0  0  0  0  0  0  0  0  0  0  0
   -5.7293   -0.9184    0.5374 H   0  0  0  0  0  0  0  0  0  0  0  0
   -5.2699   -3.3708    1.3253 H   0  0  0  0  0  0  0  0  0  0  0  0
   -5.1793   -2.8988   -0.4277 H   0  0  0  0  0  0  0  0  0  0  0  0
   -3.2526   -4.3023    0.9630 H   0  0  0  0  0  0  0  0  0  0  0  0
   -3.5342   -3.0447   -1.5139 H   0  0  0  0  0  0  0  0  0  0  0  0
   -2.0126   -2.5806   -0.9635 H   0  0  0  0  0  0  0  0  0  0  0  0
   -1.4647   -2.6924    1.5216 H   0  0  0  0  0  0  0  0  0  0  0  0
   -2.9634   -2.0544    2.3263 H   0  0  0  0  0  0  0  0  0  0  0  0
   -1.1490    1.8183   -1.9248 H   0  0  0  0  0  0  0  0  0  0  0  0
   -2.5646    1.3358   -1.0090 H   0  0  0  0  0  0  0  0  0  0  0  0
   -0.9585    4.0165   -1.8414 H   0  0  0  0  0  0  0  0  0  0  0  0
   -1.2667    6.2879    1.7355 H   0  0  0  0  0  0  0  0  0  0  0  0
   -1.6927    4.2849    2.9865 H   0  0  0  0  0  0  0  0  0  0  0  0
    2.2206   -2.9117    1.0123 H   0  0  0  0  0  0  0  0  0  0  0  0
    4.6326   -3.4422    0.9270 H   0  0  0  0  0  0  0  0  0  0  0  0
    8.0466   -3.2351    0.7613 H   0  0  0  0  0  0  0  0  0  0  0  0
    5.3969    0.0668   -1.2483 H   0  0  0  0  0  0  0  0  0  0  0  0
  1  2  1  0
  2  3  1  0
  3  4  2  0
  3  5  1  0
  5  6  2  0
  6  7  1  0
  7  8  2  0
  8  9  1  0
  9 10  1  0
 10 11  1  0
 11 12  1  0
 12 13  1  0
 13 14  1  0
 13 15  1  0
  8 16  1  0
 16 17  1  0
 17 18  1  0
 18 19  2  0
 19 20  1  0
 20 21  1  0
 20 22  2  0
 22 23  1  0
 23 24  2  0
 24 25  1  0
  6 26  1  0
 26 27  2  0
 27 28  1  0
 28 29  2  0
 29 30  1  0
 30 31  2  0
 30 32  1  0
 29 33  1  0
 33 34  2  0
 34  2  1  0
 16  5  1  0
 24 18  1  0
 34 26  1  0
 15  9  1  0
  1 35  1  0
  1 36  1  0
  1 37  1  0
 10 38  1  0
 10 39  1  0
 11 40  1  0
 11 41  1  0
 12 42  1  0
 12 43  1  0
 13 44  1  1
 14 45  1  0
 14 46  1  0
 15 47  1  0
 15 48  1  0
 17 49  1  0
 17 50  1  0
 19 51  1  0
 22 52  1  0
 23 53  1  0
 27 54  1  0
 28 55  1  0
 32 56  1  0
 33 57  1  0
M  END
$$$$
