
     RDKit          3D

 40 41  0  0  0  0  0  0  0  0999 V2000
   -0.9581    3.9242   -0.1521 C   0  0  0  0  0  0  0  0  0  0  0  0
   -1.8544    2.8917    0.1965 O   0  0  0  0  0  0  0  0  0  0  0  0
   -1.5933    1.5520   -0.0573 C   0  0  0  0  0  0  0  0  0  0  0  0
   -0.4233    1.1465   -0.6730 C   0  0  0  0  0  0  0  0  0  0  0  0
   -0.1734   -0.2083   -0.9225 C   0  0  0  0  0  0  0  0  0  0  0  0
    1.1262   -0.4276   -1.5869 C   0  0  0  0  0  0  0  0  0  0  0  0
    2.2405   -0.5538   -0.6293 C   0  0  0  0  0  0  0  0  0  0  0  0
    3.0941    0.5448   -0.4661 C   0  0  0  0  0  0  0  0  0  0  0  0
    4.1353    0.5519    0.3738 N   0  0  0  0  0  4  0  0  0  0  0  0
    4.4021   -0.5413    1.1154 C   0  0  0  0  0  0  0  0  0  0  0  0
    5.5028   -0.5625    2.0168 N   0  0  0  0  0  0  0  0  0  0  0  0
    3.6150   -1.6262    0.9994 N   0  0  0  0  0  0  0  0  0  0  0  0
    2.5674   -1.6368    0.1560 C   0  0  0  0  0  0  0  0  0  0  0  0
    1.7273   -2.7750    0.0199 N   0  0  0  0  0  0  0  0  0  0  0  0
   -1.1294   -1.1217   -0.5358 C   0  0  0  0  0  0  0  0  0  0  0  0
   -2.2984   -0.7265    0.0784 C   0  0  0  0  0  0  0  0  0  0  0  0
   -3.2215   -1.6772    0.4453 O   0  0  0  0  0  0  0  0  0  0  0  0
   -2.9587   -3.0368    0.1879 C   0  0  0  0  0  0  0  0  0  0  0  0
   -2.5373    0.6201    0.3220 C   0  0  0  0  0  0  0  0  0  0  0  0
   -3.7029    1.0588    0.9384 O   0  0  0  0  0  0  0  0  0  0  0  0
   -4.8860    1.4086    0.2709 C   0  0  0  0  0  0  0  0  0  0  0  0
    0.0437    3.8219    0.2909 H   0  0  0  0  0  0  0  0  0  0  0  0
   -1.4280    4.8877    0.1088 H   0  0  0  0  0  0  0  0  0  0  0  0
   -0.8097    3.9270   -1.2659 H   0  0  0  0  0  0  0  0  0  0  0  0
    0.2582    1.9627   -0.9338 H   0  0  0  0  0  0  0  0  0  0  0  0
    0.9969   -1.3881   -2.1715 H   0  0  0  0  0  0  0  0  0  0  0  0
    1.3571    0.3646   -2.3128 H   0  0  0  0  0  0  0  0  0  0  0  0
    2.9135    1.4460   -1.0458 H   0  0  0  0  0  0  0  0  0  0  0  0
    4.7535    1.3949    0.4690 H   0  0  0  0  0  0  0  0  0  0  0  0
    5.5177    0.3274    2.5974 H   0  0  0  0  0  0  0  0  0  0  0  0
    6.2103   -1.2957    2.1362 H   0  0  0  0  0  0  0  0  0  0  0  0
    1.0110   -2.8457    0.7685 H   0  0  0  0  0  0  0  0  0  0  0  0
    1.6080   -3.5862   -0.6241 H   0  0  0  0  0  0  0  0  0  0  0  0
   -0.8711   -2.1388   -0.7606 H   0  0  0  0  0  0  0  0  0  0  0  0
   -2.6043   -3.2202   -0.8533 H   0  0  0  0  0  0  0  0  0  0  0  0
   -3.8895   -3.6234    0.3438 H   0  0  0  0  0  0  0  0  0  0  0  0
   -2.1380   -3.3535    0.8640 H   0  0  0  0  0  0  0  0  0  0  0  0
   -5.4290    2.1720    0.8730 H   0  0  0  0  0  0  0  0  0  0  0  0
   -4.6756    1.8486   -0.7403 H   0  0  0  0  0  0  0  0  0  0  0  0
   -5.4989    0.4938    0.1585 H   0  0  0  0  0  0  0  0  0  0  0  0
  1  2  1  0
  2  3  1  0
  3  4  2  0
  4  5  1  0
  5  6  1  0
  6  7  1  0
  7  8  2  0
  8  9  1  0
  9 10  2  0
 10 11  1  0
 10 12  1  0
 12 13  2  0
 13 14  1  0
  5 15  2  0
 15 16  1  0
 16 17  1  0
 17 18  1  0
 16 19  2  0
 19 20  1  0
 20 21  1  0
 19  3  1  0
 13  7  1  0
  1 22  1  0
  1 23  1  0
  1 24  1  0
  4 25  1  0
  6 26  1  0
  6 27  1  0
  8 28  1  0
  9 29  1  0
 11 30  1  0
 11 31  1  0
 14 32  1  0
 14 33  1  0
 15 34  1  0
 18 35  1  0
 18 36  1  0
 18 37  1  0
 21 38  1  0
 21 39  1  0
 21 40  1  0
M  CHG  1   9   1
M  END
$$$$
