
     RDKit          3D

 41 43  0  0  0  0  0  0  0  0999 V2000
    5.0148   -2.3766   -5.1149 N   0  0  0  0  0  0  0  0  0  0  0  0
    4.5224   -2.1511   -4.1191 C   0  0  0  0  0  0  0  0  0  0  0  0
    3.8962   -1.8798   -2.8200 C   0  0  0  0  0  0  0  0  0  0  0  0
    3.8343   -2.8413   -1.8417 C   0  0  0  0  0  0  0  0  0  0  0  0
    3.2494   -2.6136   -0.6187 C   0  0  0  0  0  0  0  0  0  0  0  0
    2.6895   -1.3703   -0.3320 C   0  0  0  0  0  0  0  0  0  0  0  0
    2.0931   -1.1405    0.9392 N   0  0  0  0  0  0  0  0  0  0  0  0
    0.7338   -0.6911    1.0302 C   0  0  0  0  0  0  0  0  0  0  0  0
    0.1812    0.4973    0.8299 N   0  0  0  0  0  0  0  0  0  0  0  0
   -1.1194    0.4691    1.0294 N   0  0  0  0  0  0  0  0  0  0  0  0
   -2.0571    1.5473    0.8933 C   0  0  1  0  0  0  0  0  0  0  0  0
   -2.8473    1.8345    2.1562 C   0  0  0  0  0  0  0  0  0  0  0  0
   -3.5527    3.0341    2.0348 O   0  0  0  0  0  0  0  0  0  0  0  0
   -3.7464    3.3826    0.7091 C   0  0  0  0  0  0  0  0  0  0  0  0
   -2.4588    3.8033    0.0613 C   0  0  0  0  0  0  0  0  0  0  0  0
   -1.3719    2.8260    0.5211 C   0  0  2  0  0  0  0  0  0  0  0  0
   -0.3397    2.6988   -0.4906 C   0  0  0  0  0  0  0  0  0  0  0  0
    0.4811    2.6152   -1.2821 N   0  0  0  0  0  0  0  0  0  0  0  0
   -1.4435   -0.7811    1.3747 C   0  0  0  0  0  0  0  0  0  0  0  0
   -0.3127   -1.5488    1.3893 C   0  0  0  0  0  0  0  0  0  0  0  0
   -0.1650   -2.9770    1.7102 C   0  0  0  0  0  0  0  0  0  0  0  0
   -1.3349   -3.6979    2.0739 N   0  0  0  0  0  0  0  0  0  0  0  0
    0.9660   -3.5264    1.6598 O   0  0  0  0  0  0  0  0  0  0  0  0
    2.7432   -0.4112   -1.2877 C   0  0  0  0  0  0  0  0  0  0  0  0
    3.3404   -0.6557   -2.5259 C   0  0  0  0  0  0  0  0  0  0  0  0
    4.2680   -3.8301   -2.0523 H   0  0  0  0  0  0  0  0  0  0  0  0
    3.2294   -3.3989    0.1054 H   0  0  0  0  0  0  0  0  0  0  0  0
    2.6152   -1.2894    1.8372 H   0  0  0  0  0  0  0  0  0  0  0  0
   -2.8061    1.3172    0.0938 H   0  0  0  0  0  0  0  0  0  0  0  0
   -3.5452    1.0181    2.4205 H   0  0  0  0  0  0  0  0  0  0  0  0
   -2.1479    1.9512    3.0046 H   0  0  0  0  0  0  0  0  0  0  0  0
   -4.3122    2.6315    0.1183 H   0  0  0  0  0  0  0  0  0  0  0  0
   -4.4402    4.2736    0.7363 H   0  0  0  0  0  0  0  0  0  0  0  0
   -2.1756    4.8441    0.2437 H   0  0  0  0  0  0  0  0  0  0  0  0
   -2.5612    3.6138   -1.0493 H   0  0  0  0  0  0  0  0  0  0  0  0
   -0.9217    3.2350    1.4731 H   0  0  0  0  0  0  0  0  0  0  0  0
   -2.4536   -1.1184    1.6065 H   0  0  0  0  0  0  0  0  0  0  0  0
   -1.1645   -4.5344    2.7087 H   0  0  0  0  0  0  0  0  0  0  0  0
   -2.2946   -3.4492    1.7597 H   0  0  0  0  0  0  0  0  0  0  0  0
    2.3336    0.5669   -1.1217 H   0  0  0  0  0  0  0  0  0  0  0  0
    3.3803    0.1231   -3.2863 H   0  0  0  0  0  0  0  0  0  0  0  0
  1  2  3  0
  2  3  1  0
  3  4  2  0
  4  5  1  0
  5  6  2  0
  6  7  1  0
  7  8  1  0
  8  9  2  0
  9 10  1  0
 10 11  1  0
 11 12  1  0
 12 13  1  0
 13 14  1  0
 14 15  1  0
 15 16  1  0
 16 17  1  0
 17 18  3  0
 10 19  1  0
 19 20  2  0
 20 21  1  0
 21 22  1  0
 21 23  2  0
  6 24  1  0
 24 25  2  0
 25  3  1  0
 20  8  1  0
 16 11  1  0
  4 26  1  0
  5 27  1  0
  7 28  1  0
 11 29  1  6
 12 30  1  0
 12 31  1  0
 14 32  1  0
 14 33  1  0
 15 34  1  0
 15 35  1  0
 16 36  1  1
 19 37  1  0
 22 38  1  0
 22 39  1  0
 24 40  1  0
 25 41  1  0
M  END
$$$$
