
     RDKit          3D

 49 50  0  0  0  0  0  0  0  0999 V2000
    0.9597    0.4996    1.4671 C   0  0  0  0  0  0  0  0  0  0  0  0
    0.8939   -0.7209    0.5985 C   0  0  0  0  0  0  0  0  0  0  0  0
   -0.3099   -1.0821    0.0406 C   0  0  0  0  0  0  0  0  0  0  0  0
   -1.4404   -0.2706    0.3383 N   0  0  0  0  0  0  0  0  0  0  0  0
   -2.7586   -0.4171   -0.1715 C   0  0  0  0  0  0  0  0  0  0  0  0
   -3.0211   -1.3229   -0.9781 O   0  0  0  0  0  0  0  0  0  0  0  0
   -3.5010    0.6233    0.4415 N   0  0  0  0  0  0  0  0  0  0  0  0
   -4.9044    0.3692   -0.1927 C   0  0  0  0  0  0  0  0  0  0  0  0
   -5.2891   -0.5341   -1.0101 O   0  0  0  0  0  0  0  0  0  0  0  0
   -6.2393    1.1016   -0.0439 C   0  0  0  0  0  0  0  0  0  0  0  0
   -7.2859    0.5009    0.6199 C   0  0  0  0  0  0  0  0  0  0  0  0
   -8.4342    1.2936    0.7025 C   0  0  0  0  0  0  0  0  0  0  0  0
   -8.5043    2.5512    0.1698 C   0  0  0  0  0  0  0  0  0  0  0  0
  -10.0187    3.4450    0.3468 Cl  0  0  0  0  0  0  0  0  0  0  0  0
   -7.4088    3.1084   -0.4936 C   0  0  0  0  0  0  0  0  0  0  0  0
   -6.2466    2.3755   -0.6084 C   0  0  0  0  0  0  0  0  0  0  0  0
   -4.8477    3.0269   -1.4313 Cl  0  0  0  0  0  0  0  0  0  0  0  0
   -0.3292   -2.2044   -0.7479 C   0  0  0  0  0  0  0  0  0  0  0  0
    0.7665   -2.9911   -1.0178 C   0  0  0  0  0  0  0  0  0  0  0  0
    1.9817   -2.6101   -0.4420 C   0  0  0  0  0  0  0  0  0  0  0  0
    2.0431   -1.4888    0.3547 C   0  0  0  0  0  0  0  0  0  0  0  0
    3.1459   -0.9988    0.9788 O   0  0  0  0  0  0  0  0  0  0  0  0
    4.4523   -1.3917    1.0151 C   0  0  0  0  0  0  0  0  0  0  0  0
    5.1316   -1.3246   -0.3051 C   0  0  0  0  0  0  0  0  0  0  0  0
    5.1637    0.0721   -0.8901 C   0  0  0  0  0  0  0  0  0  0  0  0
    5.8872    1.0443   -0.0093 C   0  0  0  0  0  0  0  0  0  0  0  0
    7.3097    0.6229    0.2032 C   0  0  0  0  0  0  0  0  0  0  0  0
    8.4727    1.1519   -0.3330 O   0  0  0  0  0  0  0  0  0  0  0  0
    7.6028   -0.3571    0.9713 O   0  0  0  0  0  0  0  0  0  0  0  0
    2.0119    0.7504    1.6957 H   0  0  0  0  0  0  0  0  0  0  0  0
    0.5205    1.3822    0.9983 H   0  0  0  0  0  0  0  0  0  0  0  0
    0.4635    0.2834    2.4131 H   0  0  0  0  0  0  0  0  0  0  0  0
   -1.3274    0.5171    0.9924 H   0  0  0  0  0  0  0  0  0  0  0  0
   -4.2407    0.4539    0.0797 H   0  0  0  0  0  0  0  0  0  0  0  0
   -7.1839   -0.4934    1.0235 H   0  0  0  0  0  0  0  0  0  0  0  0
   -9.2934    0.8792    1.2123 H   0  0  0  0  0  0  0  0  0  0  0  0
   -7.4719    4.0982   -0.9105 H   0  0  0  0  0  0  0  0  0  0  0  0
   -1.2223   -2.5583   -1.2193 H   0  0  0  0  0  0  0  0  0  0  0  0
    0.7329   -3.8725   -1.6414 H   0  0  0  0  0  0  0  0  0  0  0  0
    2.8152   -3.2286   -0.6382 H   0  0  0  0  0  0  0  0  0  0  0  0
    5.0493   -0.9133    1.8338 H   0  0  0  0  0  0  0  0  0  0  0  0
    4.4863   -2.4924    1.3126 H   0  0  0  0  0  0  0  0  0  0  0  0
    6.1739   -1.7441   -0.2374 H   0  0  0  0  0  0  0  0  0  0  0  0
    4.6234   -1.9513   -1.0434 H   0  0  0  0  0  0  0  0  0  0  0  0
    5.7292   -0.0209   -1.8438 H   0  0  0  0  0  0  0  0  0  0  0  0
    4.1534    0.4205   -1.0912 H   0  0  0  0  0  0  0  0  0  0  0  0
    5.9316    2.0357   -0.5333 H   0  0  0  0  0  0  0  0  0  0  0  0
    5.4320    1.2128    0.9633 H   0  0  0  0  0  0  0  0  0  0  0  0
    9.3451    1.1693    0.1601 H   0  0  0  0  0  0  0  0  0  0  0  0
  1  2  1  0
  2  3  2  0
  3  4  1  0
  4  5  1  0
  5  6  2  0
  5  7  1  0
  7  8  1  0
  8  9  2  0
  8 10  1  0
 10 11  2  0
 11 12  1  0
 12 13  2  0
 13 14  1  0
 13 15  1  0
 15 16  2  0
 16 17  1  0
  3 18  1  0
 18 19  2  0
 19 20  1  0
 20 21  2  0
 21 22  1  0
 22 23  1  0
 23 24  1  0
 24 25  1  0
 25 26  1  0
 26 27  1  0
 27 28  1  0
 27 29  2  0
 21  2  1  0
 16 10  1  0
  1 30  1  0
  1 31  1  0
  1 32  1  0
  4 33  1  0
  7 34  1  0
 11 35  1  0
 12 36  1  0
 15 37  1  0
 18 38  1  0
 19 39  1  0
 20 40  1  0
 23 41  1  0
 23 42  1  0
 24 43  1  0
 24 44  1  0
 25 45  1  0
 25 46  1  0
 26 47  1  0
 26 48  1  0
 28 49  1  0
M  END
$$$$
