
     RDKit          3D

 55 57  0  0  0  0  0  0  0  0999 V2000
   -0.0941    1.7099    1.5881 O   0  0  0  0  0  0  0  0  0  0  0  0
    0.4962    1.0748    0.6740 C   0  0  0  0  0  0  0  0  0  0  0  0
    0.8521    1.7528   -0.4661 O   0  0  0  0  0  0  0  0  0  0  0  0
    0.7742   -0.3458    0.8615 C   0  0  0  0  0  0  0  0  0  0  0  0
    2.1535   -0.8349    0.5784 C   0  0  0  0  0  0  0  0  0  0  0  0
    3.2868   -0.3042    1.3282 C   0  0  0  0  0  0  0  0  0  0  0  0
    3.7542    1.3529    1.2208 S   0  0  0  0  0  6  0  0  0  0  0  0
    2.8288    2.3412    1.8553 O   0  0  0  0  0  0  0  0  0  0  0  0
    5.0404    1.4896    2.0651 O   0  0  0  0  0  0  0  0  0  0  0  0
    4.2368    1.8921   -0.3979 C   0  0  0  0  0  0  0  0  0  0  0  0
    5.4166    1.0952   -0.8706 C   0  0  0  0  0  0  0  0  0  0  0  0
    6.6662    1.5732   -0.5515 C   0  0  0  0  0  0  0  0  0  0  0  0
    7.7882    0.8822   -0.9606 C   0  0  0  0  0  0  0  0  0  0  0  0
    7.6676   -0.2757   -1.6816 C   0  0  0  0  0  0  0  0  0  0  0  0
    6.4153   -0.7349   -1.9890 C   0  0  0  0  0  0  0  0  0  0  0  0
    5.2737   -0.0644   -1.5931 C   0  0  0  0  0  0  0  0  0  0  0  0
    0.3179   -0.7975    2.1921 N   0  0  0  0  0  0  0  0  0  0  0  0
   -0.9066   -1.9619    2.0622 S   0  0  0  0  0  6  0  0  0  0  0  0
   -1.2484   -2.5100    3.4204 O   0  0  0  0  0  0  0  0  0  0  0  0
   -0.3733   -3.1502    1.2736 O   0  0  0  0  0  0  0  0  0  0  0  0
   -2.3534   -1.4402    1.2789 C   0  0  0  0  0  0  0  0  0  0  0  0
   -3.3676   -0.8062    1.9667 C   0  0  0  0  0  0  0  0  0  0  0  0
   -4.5318   -0.3903    1.3557 C   0  0  0  0  0  0  0  0  0  0  0  0
   -4.7201   -0.6025    0.0024 C   0  0  0  0  0  0  0  0  0  0  0  0
   -5.9066   -0.1975   -0.7079 C   0  0  0  0  0  0  0  0  0  0  0  0
   -6.3556   -0.9161   -1.7877 C   0  0  0  0  0  0  0  0  0  0  0  0
   -7.4933   -0.5532   -2.4933 C   0  0  0  0  0  0  0  0  0  0  0  0
   -8.1910    0.5495   -2.1075 C   0  0  0  0  0  0  0  0  0  0  0  0
   -9.7740    1.1418   -3.0083 Br  0  0  0  0  0  0  0  0  0  0  0  0
   -7.7711    1.3004   -1.0242 C   0  0  0  0  0  0  0  0  0  0  0  0
   -6.6159    0.9136   -0.3248 C   0  0  0  0  0  0  0  0  0  0  0  0
   -3.6876   -1.2408   -0.6657 C   0  0  0  0  0  0  0  0  0  0  0  0
   -2.5323   -1.6533   -0.0584 C   0  0  0  0  0  0  0  0  0  0  0  0
    0.5878    2.6857   -0.6958 H   0  0  0  0  0  0  0  0  0  0  0  0
    0.1177   -0.9603    0.1470 H   0  0  0  0  0  0  0  0  0  0  0  0
    2.3293   -0.8670   -0.5434 H   0  0  0  0  0  0  0  0  0  0  0  0
    2.1129   -1.9543    0.8103 H   0  0  0  0  0  0  0  0  0  0  0  0
    4.1860   -0.9583    1.0664 H   0  0  0  0  0  0  0  0  0  0  0  0
    3.1370   -0.5509    2.4148 H   0  0  0  0  0  0  0  0  0  0  0  0
    4.5828    2.9426   -0.3208 H   0  0  0  0  0  0  0  0  0  0  0  0
    3.4394    1.8949   -1.1415 H   0  0  0  0  0  0  0  0  0  0  0  0
    6.8106    2.4807    0.0146 H   0  0  0  0  0  0  0  0  0  0  0  0
    8.7880    1.2334   -0.7247 H   0  0  0  0  0  0  0  0  0  0  0  0
    8.5345   -0.8353   -2.0137 H   0  0  0  0  0  0  0  0  0  0  0  0
    6.2793   -1.6389   -2.5526 H   0  0  0  0  0  0  0  0  0  0  0  0
    4.2941   -0.4241   -1.8350 H   0  0  0  0  0  0  0  0  0  0  0  0
    0.1232   -0.0184    2.8251 H   0  0  0  0  0  0  0  0  0  0  0  0
   -3.2416   -0.6263    3.0425 H   0  0  0  0  0  0  0  0  0  0  0  0
   -5.3302    0.1138    1.9191 H   0  0  0  0  0  0  0  0  0  0  0  0
   -5.7873   -1.7997   -2.0867 H   0  0  0  0  0  0  0  0  0  0  0  0
   -7.8178   -1.1359   -3.3326 H   0  0  0  0  0  0  0  0  0  0  0  0
   -8.2833    2.1750   -0.6805 H   0  0  0  0  0  0  0  0  0  0  0  0
   -6.3037    1.5134    0.5193 H   0  0  0  0  0  0  0  0  0  0  0  0
   -3.8224   -1.4160   -1.7446 H   0  0  0  0  0  0  0  0  0  0  0  0
   -1.7824   -2.1436   -0.6456 H   0  0  0  0  0  0  0  0  0  0  0  0
  1  2  2  0
  2  3  1  0
  2  4  1  0
  4  5  1  0
  5  6  1  0
  6  7  1  0
  7  8  2  0
  7  9  2  0
  7 10  1  0
 10 11  1  0
 11 12  2  0
 12 13  1  0
 13 14  2  0
 14 15  1  0
 15 16  2  0
  4 17  1  0
 17 18  1  0
 18 19  2  0
 18 20  2  0
 18 21  1  0
 21 22  2  0
 22 23  1  0
 23 24  2  0
 24 25  1  0
 25 26  2  0
 26 27  1  0
 27 28  2  0
 28 29  1  0
 28 30  1  0
 30 31  2  0
 24 32  1  0
 32 33  2  0
 16 11  1  0
 33 21  1  0
 31 25  1  0
  3 34  1  0
  4 35  1  0
  5 36  1  0
  5 37  1  0
  6 38  1  0
  6 39  1  0
 10 40  1  0
 10 41  1  0
 12 42  1  0
 13 43  1  0
 14 44  1  0
 15 45  1  0
 16 46  1  0
 17 47  1  0
 22 48  1  0
 23 49  1  0
 26 50  1  0
 27 51  1  0
 30 52  1  0
 31 53  1  0
 32 54  1  0
 33 55  1  0
M  END
$$$$
