
     RDKit          3D

 50 54  0  0  0  0  0  0  0  0999 V2000
    1.9617   -0.8292    1.6401 O   0  0  0  0  0  0  0  0  0  0  0  0
    1.6850   -0.6514    0.3926 C   0  0  0  0  0  0  0  0  0  0  0  0
    0.3625   -0.2818    0.0132 N   0  0  0  0  0  0  0  0  0  0  0  0
   -0.2866   -0.0133   -1.2250 C   0  0  0  0  0  0  0  0  0  0  0  0
   -1.5912   -0.8192   -1.0507 C   0  0  0  0  0  0  0  0  0  0  0  0
   -1.9914   -0.3771    0.3337 C   0  0  0  0  0  0  0  0  0  0  0  0
   -2.7041   -1.4957    1.0862 C   0  0  0  0  0  0  0  0  0  0  0  0
   -3.9519   -1.9441    0.4083 C   0  0  0  0  0  0  0  0  0  0  0  0
   -4.7640   -0.8515   -0.1908 C   0  0  0  0  0  0  0  0  0  0  0  0
   -4.2503    0.5010    0.0114 C   0  0  0  0  0  0  0  0  0  0  0  0
   -5.1623    1.5443   -0.0688 C   0  0  0  0  0  0  0  0  0  0  0  0
   -4.7839    2.8814    0.0800 C   0  0  0  0  0  0  0  0  0  0  0  0
   -3.4570    3.1292    0.3091 C   0  0  0  0  0  0  0  0  0  0  0  0
   -2.5415    2.0809    0.3891 C   0  0  0  0  0  0  0  0  0  0  0  0
   -2.9015    0.7712    0.2467 C   0  0  0  0  0  0  0  0  0  0  0  0
   -0.6991   -0.1277    1.0385 C   0  0  0  0  0  0  0  0  0  0  0  0
    2.8221   -0.8669   -0.5246 C   0  0  0  0  0  0  0  0  0  0  0  0
    4.0184    0.0317   -0.3412 C   0  0  0  0  0  0  0  0  0  0  0  0
    4.5986    0.2257    0.8890 C   0  0  0  0  0  0  0  0  0  0  0  0
    5.7216    1.0253    1.1004 C   0  0  0  0  0  0  0  0  0  0  0  0
    6.3074    1.6732    0.0298 C   0  0  0  0  0  0  0  0  0  0  0  0
    7.7371    2.6782    0.2271 Cl  0  0  0  0  0  0  0  0  0  0  0  0
    5.7372    1.4906   -1.2164 C   0  0  0  0  0  0  0  0  0  0  0  0
    4.6262    0.6963   -1.3998 C   0  0  0  0  0  0  0  0  0  0  0  0
    3.2026   -2.3777   -0.5987 C   0  0  0  0  0  0  0  0  0  0  0  0
    2.7473   -1.5759   -1.7973 C   0  0  0  0  0  0  0  0  0  0  0  0
    0.2121   -0.2909   -2.1393 H   0  0  0  0  0  0  0  0  0  0  0  0
   -0.5693    1.0672   -1.3402 H   0  0  0  0  0  0  0  0  0  0  0  0
   -2.3650   -0.5215   -1.7543 H   0  0  0  0  0  0  0  0  0  0  0  0
   -1.3626   -1.8817   -1.0630 H   0  0  0  0  0  0  0  0  0  0  0  0
   -1.9937   -2.3438    1.0710 H   0  0  0  0  0  0  0  0  0  0  0  0
   -2.8461   -1.1603    2.1180 H   0  0  0  0  0  0  0  0  0  0  0  0
   -3.6787   -2.7145   -0.3740 H   0  0  0  0  0  0  0  0  0  0  0  0
   -4.5756   -2.4736    1.1507 H   0  0  0  0  0  0  0  0  0  0  0  0
   -5.8322   -0.8717    0.1587 H   0  0  0  0  0  0  0  0  0  0  0  0
   -4.8550   -1.0143   -1.3025 H   0  0  0  0  0  0  0  0  0  0  0  0
   -6.2155    1.3787   -0.2436 H   0  0  0  0  0  0  0  0  0  0  0  0
   -5.5055    3.6785    0.0135 H   0  0  0  0  0  0  0  0  0  0  0  0
   -3.0591    4.1323    0.4374 H   0  0  0  0  0  0  0  0  0  0  0  0
   -1.4971    2.2893    0.5745 H   0  0  0  0  0  0  0  0  0  0  0  0
   -0.4963   -0.9433    1.7914 H   0  0  0  0  0  0  0  0  0  0  0  0
   -0.6032    0.8113    1.5815 H   0  0  0  0  0  0  0  0  0  0  0  0
    4.1389   -0.2912    1.7453 H   0  0  0  0  0  0  0  0  0  0  0  0
    6.1358    1.1394    2.0855 H   0  0  0  0  0  0  0  0  0  0  0  0
    6.2130    2.0052   -2.0325 H   0  0  0  0  0  0  0  0  0  0  0  0
    4.1932    0.5667   -2.3736 H   0  0  0  0  0  0  0  0  0  0  0  0
    4.2514   -2.6540   -0.4565 H   0  0  0  0  0  0  0  0  0  0  0  0
    2.4858   -3.0997   -0.1501 H   0  0  0  0  0  0  0  0  0  0  0  0
    3.5332   -1.3430   -2.5631 H   0  0  0  0  0  0  0  0  0  0  0  0
    1.8483   -1.9824   -2.2735 H   0  0  0  0  0  0  0  0  0  0  0  0
  1  2  2  0
  2  3  1  0
  3  4  1  0
  4  5  1  0
  5  6  1  0
  6  7  1  0
  7  8  1  0
  8  9  1  0
  9 10  1  0
 10 11  2  0
 11 12  1  0
 12 13  2  0
 13 14  1  0
 14 15  2  0
  6 16  1  0
  2 17  1  0
 17 18  1  0
 18 19  2  0
 19 20  1  0
 20 21  2  0
 21 22  1  0
 21 23  1  0
 23 24  2  0
 17 25  1  0
 25 26  1  0
 16  3  1  0
 26 17  1  0
 15  6  1  0
 24 18  1  0
 15 10  1  0
  4 27  1  0
  4 28  1  0
  5 29  1  0
  5 30  1  0
  7 31  1  0
  7 32  1  0
  8 33  1  0
  8 34  1  0
  9 35  1  0
  9 36  1  0
 11 37  1  0
 12 38  1  0
 13 39  1  0
 14 40  1  0
 16 41  1  0
 16 42  1  0
 19 43  1  0
 20 44  1  0
 23 45  1  0
 24 46  1  0
 25 47  1  0
 25 48  1  0
 26 49  1  0
 26 50  1  0
M  END
$$$$
