
     RDKit          3D

 72 77  0  0  0  0  0  0  0  0999 V2000
   -3.5006    6.6346   -2.9348 C   0  0  0  0  0  0  0  0  0  0  0  0
   -2.9419    5.3532   -2.7314 O   0  0  0  0  0  0  0  0  0  0  0  0
   -2.2314    5.1405   -1.5484 C   0  0  0  0  0  0  0  0  0  0  0  0
   -1.6538    3.9014   -1.2824 C   0  0  0  0  0  0  0  0  0  0  0  0
   -0.9548    3.6906   -0.1197 C   0  0  0  0  0  0  0  0  0  0  0  0
   -0.3870    2.4074    0.0993 N   0  0  0  0  0  0  0  0  0  0  0  0
    0.9091    1.9312   -0.2705 C   0  0  0  0  0  0  0  0  0  0  0  0
    1.6047    2.4265   -1.2059 O   0  0  0  0  0  0  0  0  0  0  0  0
    1.2626    0.8345    0.5776 N   0  0  0  0  0  0  0  0  0  0  0  0
    2.4732    0.0909    0.5249 C   0  0  0  0  0  0  0  0  0  0  0  0
    3.5470    0.5059    1.2767 C   0  0  0  0  0  0  0  0  0  0  0  0
    4.7244   -0.2212    1.2229 C   0  0  0  0  0  0  0  0  0  0  0  0
    4.8596   -1.3446    0.4441 C   0  0  0  0  0  0  0  0  0  0  0  0
    6.0686   -2.1507    0.3448 C   0  0  0  0  0  0  0  0  0  0  0  0
    7.2235   -1.8639    1.0347 C   0  0  0  0  0  0  0  0  0  0  0  0
    8.3580   -2.6566    0.9146 C   0  0  0  0  0  0  0  0  0  0  0  0
    8.3899   -3.7688    0.1019 C   0  0  0  0  0  0  0  0  0  0  0  0
    9.5800   -4.6031   -0.0262 C   0  0  0  0  0  0  0  0  0  0  0  0
   10.5941   -4.2780    0.6348 O   0  0  0  0  0  0  0  0  0  0  0  0
    9.6528   -5.7237   -0.8291 O   0  0  0  0  0  0  0  0  0  0  0  0
    7.2274   -4.0616   -0.5957 C   0  0  0  0  0  0  0  0  0  0  0  0
    6.1038   -3.2755   -0.4760 C   0  0  0  0  0  0  0  0  0  0  0  0
    3.7768   -1.7012   -0.2679 N   0  0  0  0  0  0  0  0  0  0  0  0
    2.6131   -1.0328   -0.2521 C   0  0  0  0  0  0  0  0  0  0  0  0
    0.1553    0.6672    1.4574 C   0  0  0  0  0  0  0  0  0  0  0  0
    0.2109    0.1065    2.5927 O   0  0  0  0  0  0  0  0  0  0  0  0
   -1.0077    1.2733    0.7609 C   0  0  0  0  0  0  0  0  0  0  0  0
   -2.0923    1.7161    1.6948 C   0  0  0  0  0  0  0  0  0  0  0  0
   -3.0328    0.5944    2.0578 C   0  0  0  0  0  0  0  0  0  0  0  0
   -3.6622   -0.0146    0.9253 N   0  0  0  0  0  0  0  0  0  0  0  0
   -3.7407   -1.4443    1.1501 C   0  0  0  0  0  0  0  0  0  0  0  0
   -4.3839   -2.1512    0.0071 C   0  0  0  0  0  0  0  0  0  0  0  0
   -3.6843   -2.8637   -0.8941 N   0  0  0  0  0  0  0  0  0  0  0  0
   -4.3152   -3.4851   -1.9112 C   0  0  0  0  0  0  0  0  0  0  0  0
   -5.6856   -3.4075   -2.0539 C   0  0  0  0  0  0  0  0  0  0  0  0
   -6.4016   -2.6820   -1.1367 C   0  0  0  0  0  0  0  0  0  0  0  0
   -5.7522   -2.0479   -0.0979 C   0  0  0  0  0  0  0  0  0  0  0  0
   -6.5330   -1.2616    0.8951 C   0  0  0  0  0  0  0  0  0  0  0  0
   -3.0277    0.3068   -0.3304 C   0  0  0  0  0  0  0  0  0  0  0  0
   -1.5201    0.2678   -0.2413 C   0  0  0  0  0  0  0  0  0  0  0  0
   -0.8565    4.7180    0.7336 N   0  0  0  0  0  0  0  0  0  0  0  0
   -1.4024    5.9207    0.5028 C   0  0  0  0  0  0  0  0  0  0  0  0
   -2.0834    6.1131   -0.6384 N   0  0  0  0  0  0  0  0  0  0  0  0
   -2.7454    7.4201   -2.6671 H   0  0  0  0  0  0  0  0  0  0  0  0
   -4.3695    6.7293   -2.2298 H   0  0  0  0  0  0  0  0  0  0  0  0
   -3.8895    6.7811   -3.9499 H   0  0  0  0  0  0  0  0  0  0  0  0
   -1.7788    3.1261   -2.0211 H   0  0  0  0  0  0  0  0  0  0  0  0
    3.4292    1.3867    1.8825 H   0  0  0  0  0  0  0  0  0  0  0  0
    5.5430    0.1117    1.8082 H   0  0  0  0  0  0  0  0  0  0  0  0
    7.2291   -0.9853    1.6897 H   0  0  0  0  0  0  0  0  0  0  0  0
    9.2437   -2.3936    1.4757 H   0  0  0  0  0  0  0  0  0  0  0  0
   10.2640   -6.5233   -0.6033 H   0  0  0  0  0  0  0  0  0  0  0  0
    7.2415   -4.9399   -1.2420 H   0  0  0  0  0  0  0  0  0  0  0  0
    5.1881   -3.5072   -1.0261 H   0  0  0  0  0  0  0  0  0  0  0  0
    1.7739   -1.3660   -0.8463 H   0  0  0  0  0  0  0  0  0  0  0  0
   -2.6701    2.5803    1.3133 H   0  0  0  0  0  0  0  0  0  0  0  0
   -1.6143    2.0622    2.6373 H   0  0  0  0  0  0  0  0  0  0  0  0
   -3.8249    1.0195    2.7086 H   0  0  0  0  0  0  0  0  0  0  0  0
   -2.4826   -0.1480    2.7023 H   0  0  0  0  0  0  0  0  0  0  0  0
   -2.7531   -1.8931    1.3076 H   0  0  0  0  0  0  0  0  0  0  0  0
   -4.3429   -1.5990    2.0665 H   0  0  0  0  0  0  0  0  0  0  0  0
   -3.6975   -4.0420   -2.6025 H   0  0  0  0  0  0  0  0  0  0  0  0
   -6.1580   -3.9231   -2.8882 H   0  0  0  0  0  0  0  0  0  0  0  0
   -7.4935   -2.6191   -1.2487 H   0  0  0  0  0  0  0  0  0  0  0  0
   -7.6153   -1.3373    0.6688 H   0  0  0  0  0  0  0  0  0  0  0  0
   -6.2475   -0.2081    0.9199 H   0  0  0  0  0  0  0  0  0  0  0  0
   -6.3920   -1.6677    1.9142 H   0  0  0  0  0  0  0  0  0  0  0  0
   -3.3340   -0.4747   -1.0609 H   0  0  0  0  0  0  0  0  0  0  0  0
   -3.3608    1.2769   -0.7423 H   0  0  0  0  0  0  0  0  0  0  0  0
   -1.1340    0.5722   -1.2373 H   0  0  0  0  0  0  0  0  0  0  0  0
   -1.1760   -0.7478   -0.0413 H   0  0  0  0  0  0  0  0  0  0  0  0
   -1.3166    6.7479    1.2023 H   0  0  0  0  0  0  0  0  0  0  0  0
  1  2  1  0
  2  3  1  0
  3  4  2  0
  4  5  1  0
  5  6  1  0
  6  7  1  0
  7  8  2  0
  7  9  1  0
  9 10  1  0
 10 11  2  0
 11 12  1  0
 12 13  2  0
 13 14  1  0
 14 15  2  0
 15 16  1  0
 16 17  2  0
 17 18  1  0
 18 19  2  0
 18 20  1  0
 17 21  1  0
 21 22  2  0
 13 23  1  0
 23 24  2  0
  9 25  1  0
 25 26  2  0
 25 27  1  0
 27 28  1  0
 28 29  1  0
 29 30  1  0
 30 31  1  0
 31 32  1  0
 32 33  2  0
 33 34  1  0
 34 35  2  0
 35 36  1  0
 36 37  2  0
 37 38  1  0
 30 39  1  0
 39 40  1  0
  5 41  2  0
 41 42  1  0
 42 43  2  0
 43  3  1  0
 27  6  1  0
 37 32  1  0
 24 10  1  0
 40 27  1  0
 22 14  1  0
  1 44  1  0
  1 45  1  0
  1 46  1  0
  4 47  1  0
 11 48  1  0
 12 49  1  0
 15 50  1  0
 16 51  1  0
 20 52  1  0
 21 53  1  0
 22 54  1  0
 24 55  1  0
 28 56  1  0
 28 57  1  0
 29 58  1  0
 29 59  1  0
 31 60  1  0
 31 61  1  0
 34 62  1  0
 35 63  1  0
 36 64  1  0
 38 65  1  0
 38 66  1  0
 38 67  1  0
 39 68  1  0
 39 69  1  0
 40 70  1  0
 40 71  1  0
 42 72  1  0
M  END
$$$$
