
     RDKit          3D

 23 23  0  0  0  0  0  0  0  0999 V2000
   -1.0973   -0.9364    0.4955 C   0  0  1  0  0  0  0  0  0  0  0  0
   -1.8301   -2.1080    0.4333 O   0  0  0  0  0  0  0  0  0  0  0  0
    0.3512   -1.1328    0.0507 C   0  0  0  0  0  0  0  0  0  0  0  0
    1.0723    0.1482    0.4267 C   0  0  1  0  0  0  0  0  0  0  0  0
    2.4612    0.1366   -0.1811 C   0  0  0  0  0  0  0  0  0  0  0  0
    3.1608    1.2356    0.3005 O   0  0  0  0  0  0  0  0  0  0  0  0
    0.3587    1.2743    0.1205 O   0  0  0  0  0  0  0  0  0  0  0  0
   -0.6354    1.1404   -0.8102 C   0  0  2  0  0  0  0  0  0  0  0  0
   -1.3203    2.3683   -0.8467 O   0  0  0  0  0  0  0  0  0  0  0  0
   -1.6623    0.0988   -0.4684 C   0  0  2  0  0  0  0  0  0  0  0  0
   -2.8469    0.6394   -0.0009 O   0  0  0  0  0  0  0  0  0  0  0  0
   -1.0404   -0.5137    1.5278 H   0  0  0  0  0  0  0  0  0  0  0  0
   -1.8169   -2.5742    1.3147 H   0  0  0  0  0  0  0  0  0  0  0  0
    0.8272   -1.9767    0.5956 H   0  0  0  0  0  0  0  0  0  0  0  0
    0.3667   -1.2695   -1.0477 H   0  0  0  0  0  0  0  0  0  0  0  0
    1.2104    0.1098    1.5282 H   0  0  0  0  0  0  0  0  0  0  0  0
    2.4560    0.0490   -1.2833 H   0  0  0  0  0  0  0  0  0  0  0  0
    2.9714   -0.7615    0.2767 H   0  0  0  0  0  0  0  0  0  0  0  0
    4.1095    1.0862    0.4404 H   0  0  0  0  0  0  0  0  0  0  0  0
   -0.2332    1.0060   -1.8484 H   0  0  0  0  0  0  0  0  0  0  0  0
   -1.5603    2.5641    0.1008 H   0  0  0  0  0  0  0  0  0  0  0  0
   -1.8822   -0.4670   -1.4076 H   0  0  0  0  0  0  0  0  0  0  0  0
   -3.4202   -0.1171    0.2830 H   0  0  0  0  0  0  0  0  0  0  0  0
  1  2  1  0
  1  3  1  0
  3  4  1  0
  4  5  1  0
  5  6  1  0
  4  7  1  0
  7  8  1  0
  8  9  1  0
  8 10  1  0
 10 11  1  0
 10  1  1  0
  1 12  1  1
  2 13  1  0
  3 14  1  0
  3 15  1  0
  4 16  1  1
  5 17  1  0
  5 18  1  0
  6 19  1  0
  8 20  1  6
  9 21  1  0
 10 22  1  6
 11 23  1  0
M  END
$$$$
