
     RDKit          3D

121123  0  0  0  0  0  0  0  0999 V2000
   -2.0883   -2.5857   -0.3172 C   0  0  1  0  0  0  0  0  0  0  0  0
   -3.4700   -3.1118   -0.7855 C   0  0  0  0  0  0  0  0  0  0  0  0
   -3.7918   -4.4374   -0.2010 C   0  0  1  0  0  0  0  0  0  0  0  0
   -4.1070   -4.2996    1.2512 C   0  0  0  0  0  0  0  0  0  0  0  0
   -4.9170   -4.9175   -0.8939 O   0  0  0  0  0  0  0  0  0  0  0  0
   -5.3454   -6.1497   -0.4561 C   0  0  0  0  0  0  0  0  0  0  0  0
   -2.6922   -5.4336   -0.4818 C   0  0  1  0  0  0  0  0  0  0  0  0
   -2.8324   -5.9985   -1.7430 O   0  0  0  0  0  0  0  0  0  0  0  0
   -1.3238   -4.8050   -0.2986 C   0  0  2  0  0  0  0  0  0  0  0  0
   -0.8974   -4.9580    1.1499 C   0  0  0  0  0  0  0  0  0  0  0  0
   -1.2195   -3.5522   -0.8162 O   0  0  0  0  0  0  0  0  0  0  0  0
   -1.9227   -1.4366   -0.9594 O   0  0  0  0  0  0  0  0  0  0  0  0
   -1.6178   -0.2285   -0.4456 C   0  0  1  0  0  0  0  0  0  0  0  0
   -0.5972    0.4200   -1.3283 C   0  0  2  0  0  0  0  0  0  0  0  0
   -1.0089    0.1753   -2.7941 C   0  0  0  0  0  0  0  0  0  0  0  0
    0.7880    0.2343   -0.9806 C   0  0  1  0  0  0  0  0  0  0  0  0
    1.3695   -1.0278   -1.0164 O   0  0  0  0  0  0  0  0  0  0  0  0
    2.0964   -1.3028    0.1351 C   0  0  2  0  0  0  0  0  0  0  0  0
    3.4824   -1.3891   -0.1675 O   0  0  0  0  0  0  0  0  0  0  0  0
    4.1623   -1.1293    1.0266 C   0  0  2  0  0  0  0  0  0  0  0  0
    5.6273   -0.9802    0.6891 C   0  0  0  0  0  0  0  0  0  0  0  0
    3.9599   -2.3335    1.9105 C   0  0  0  0  0  0  0  0  0  0  0  0
    2.9905   -3.3223    1.3041 C   0  0  1  0  0  0  0  0  0  0  0  0
    1.7616   -2.6293    0.7381 C   0  0  1  0  0  0  0  0  0  0  0  0
    0.9314   -2.3870    1.8293 O   0  0  0  0  0  0  0  0  0  0  0  0
    3.6750   -3.9733    0.2079 N   0  0  0  0  0  0  0  0  0  0  0  0
    2.8604   -4.9805   -0.4326 C   0  0  0  0  0  0  0  0  0  0  0  0
    4.9108   -4.5937    0.6285 C   0  0  0  0  0  0  0  0  0  0  0  0
    1.7826    1.1112   -1.7847 C   0  0  1  0  0  0  0  0  0  0  0  0
    1.8289    0.7539   -3.2374 C   0  0  0  0  0  0  0  0  0  0  0  0
    1.4595    2.5746   -1.6766 C   0  0  0  0  0  0  0  0  0  0  0  0
    1.3812    3.1408   -0.2935 C   0  0  1  0  0  0  0  0  0  0  0  0
    2.6679    3.0312    0.5026 C   0  0  0  0  0  0  0  0  0  0  0  0
    1.1616    4.6446   -0.4592 C   0  0  0  0  0  0  0  0  0  0  0  0
    1.5035    4.7784   -1.6277 O   0  0  0  0  0  0  0  0  0  0  0  0
    0.6947    5.7019    0.4250 C   0  0  2  0  0  0  0  0  0  0  0  0
    1.2334    5.7303    1.8357 C   0  0  0  0  0  0  0  0  0  0  0  0
   -0.6640    6.2714    0.2346 C   0  0  1  0  0  0  0  0  0  0  0  0
   -0.5882    7.0068   -1.0179 O   0  0  0  0  0  0  0  0  0  0  0  0
   -1.8181    5.3987    0.0321 C   0  0  2  0  0  0  0  0  0  0  0  0
   -1.7098    4.7619   -1.4239 C   0  0  0  0  0  0  0  0  0  0  0  0
   -2.9525    6.1775   -0.1829 O   0  0  0  0  0  0  0  0  0  0  0  0
   -2.1594    4.3021    0.9652 C   0  0  1  0  0  0  0  0  0  0  0  0
   -2.9917    4.7108    2.1678 C   0  0  0  0  0  0  0  0  0  0  0  0
   -2.3301    5.7369    3.0362 C   0  0  0  0  0  0  0  0  0  0  0  0
   -2.9869    3.3252    0.2755 O   0  0  0  0  0  0  0  0  0  0  0  0
   -2.5741    2.0097    0.2019 C   0  0  0  0  0  0  0  0  0  0  0  0
   -1.5861    1.3988    0.6488 O   0  0  0  0  0  0  0  0  0  0  0  0
   -2.8797    0.6630   -0.3262 C   0  0  2  0  0  0  0  0  0  0  0  0
   -3.8812    0.0489    0.6298 C   0  0  0  0  0  0  0  0  0  0  0  0
    3.0052    0.9270   -1.1663 O   0  0  0  0  0  0  0  0  0  0  0  0
    4.1089    1.4585   -1.7441 C   0  0  0  0  0  0  0  0  0  0  0  0
   -1.9839   -2.6013    0.7677 H   0  0  0  0  0  0  0  0  0  0  0  0
   -4.2705   -2.4048   -0.6893 H   0  0  0  0  0  0  0  0  0  0  0  0
   -3.2974   -3.2688   -1.8957 H   0  0  0  0  0  0  0  0  0  0  0  0
   -3.7162   -5.1115    1.8849 H   0  0  0  0  0  0  0  0  0  0  0  0
   -3.6746   -3.3482    1.6437 H   0  0  0  0  0  0  0  0  0  0  0  0
   -5.2145   -4.1713    1.3645 H   0  0  0  0  0  0  0  0  0  0  0  0
   -6.2355   -6.3986   -1.1001 H   0  0  0  0  0  0  0  0  0  0  0  0
   -4.6220   -6.9585   -0.5927 H   0  0  0  0  0  0  0  0  0  0  0  0
   -5.7692   -6.1126    0.5736 H   0  0  0  0  0  0  0  0  0  0  0  0
   -2.7799   -6.2458    0.2617 H   0  0  0  0  0  0  0  0  0  0  0  0
   -2.3368   -5.5005   -2.4142 H   0  0  0  0  0  0  0  0  0  0  0  0
   -0.6295   -5.4430   -0.8878 H   0  0  0  0  0  0  0  0  0  0  0  0
    0.1970   -5.0938    1.1768 H   0  0  0  0  0  0  0  0  0  0  0  0
   -1.3425   -5.9310    1.4844 H   0  0  0  0  0  0  0  0  0  0  0  0
   -1.1710   -4.1308    1.7991 H   0  0  0  0  0  0  0  0  0  0  0  0
   -1.3559   -0.3763    0.6113 H   0  0  0  0  0  0  0  0  0  0  0  0
   -0.7588    1.5676   -1.3075 H   0  0  0  0  0  0  0  0  0  0  0  0
   -0.3830   -0.5710   -3.2898 H   0  0  0  0  0  0  0  0  0  0  0  0
   -1.2329    1.0877   -3.3488 H   0  0  0  0  0  0  0  0  0  0  0  0
   -2.0190   -0.3386   -2.7193 H   0  0  0  0  0  0  0  0  0  0  0  0
    0.9733    0.6519    0.0559 H   0  0  0  0  0  0  0  0  0  0  0  0
    2.0301   -0.5226    0.9154 H   0  0  0  0  0  0  0  0  0  0  0  0
    3.7856   -0.1950    1.5005 H   0  0  0  0  0  0  0  0  0  0  0  0
    5.9759    0.0883    0.8200 H   0  0  0  0  0  0  0  0  0  0  0  0
    6.2371   -1.5458    1.4417 H   0  0  0  0  0  0  0  0  0  0  0  0
    5.8814   -1.2615   -0.3390 H   0  0  0  0  0  0  0  0  0  0  0  0
    3.5484   -2.0130    2.8856 H   0  0  0  0  0  0  0  0  0  0  0  0
    4.9399   -2.8449    2.0121 H   0  0  0  0  0  0  0  0  0  0  0  0
    2.7226   -4.0567    2.0608 H   0  0  0  0  0  0  0  0  0  0  0  0
    1.2229   -3.2892    0.0413 H   0  0  0  0  0  0  0  0  0  0  0  0
    1.0142   -3.1602    2.4421 H   0  0  0  0  0  0  0  0  0  0  0  0
    2.3921   -5.5697    0.3993 H   0  0  0  0  0  0  0  0  0  0  0  0
    2.1535   -4.6001   -1.1719 H   0  0  0  0  0  0  0  0  0  0  0  0
    3.5779   -5.7235   -0.8933 H   0  0  0  0  0  0  0  0  0  0  0  0
    5.0956   -5.4612   -0.0351 H   0  0  0  0  0  0  0  0  0  0  0  0
    5.8051   -3.9356    0.5005 H   0  0  0  0  0  0  0  0  0  0  0  0
    4.8421   -5.0082    1.6576 H   0  0  0  0  0  0  0  0  0  0  0  0
    1.0531    1.2489   -3.8519 H   0  0  0  0  0  0  0  0  0  0  0  0
    2.7844    1.2066   -3.6594 H   0  0  0  0  0  0  0  0  0  0  0  0
    1.9628   -0.3289   -3.4432 H   0  0  0  0  0  0  0  0  0  0  0  0
    0.5801    2.8560   -2.2940 H   0  0  0  0  0  0  0  0  0  0  0  0
    2.3054    3.1197   -2.1815 H   0  0  0  0  0  0  0  0  0  0  0  0
    0.5465    2.6968    0.2296 H   0  0  0  0  0  0  0  0  0  0  0  0
    2.8854    1.9825    0.7857 H   0  0  0  0  0  0  0  0  0  0  0  0
    2.4971    3.5259    1.5128 H   0  0  0  0  0  0  0  0  0  0  0  0
    3.5088    3.5946    0.0820 H   0  0  0  0  0  0  0  0  0  0  0  0
    1.3441    6.6208    0.0168 H   0  0  0  0  0  0  0  0  0  0  0  0
    2.3378    5.8222    1.8932 H   0  0  0  0  0  0  0  0  0  0  0  0
    0.9234    4.9124    2.4810 H   0  0  0  0  0  0  0  0  0  0  0  0
    0.8901    6.7334    2.2644 H   0  0  0  0  0  0  0  0  0  0  0  0
   -0.8593    7.0299    0.9872 H   0  0  0  0  0  0  0  0  0  0  0  0
    0.2769    7.4577   -0.9696 H   0  0  0  0  0  0  0  0  0  0  0  0
   -2.7362    4.6394   -1.8107 H   0  0  0  0  0  0  0  0  0  0  0  0
   -1.2861    3.7825   -1.3295 H   0  0  0  0  0  0  0  0  0  0  0  0
   -1.2100    5.5135   -2.0283 H   0  0  0  0  0  0  0  0  0  0  0  0
   -2.7579    6.8838   -0.8493 H   0  0  0  0  0  0  0  0  0  0  0  0
   -1.2840    3.7766    1.3223 H   0  0  0  0  0  0  0  0  0  0  0  0
   -3.1375    3.8079    2.7984 H   0  0  0  0  0  0  0  0  0  0  0  0
   -3.9737    5.1164    1.8223 H   0  0  0  0  0  0  0  0  0  0  0  0
   -2.5132    6.7849    2.6604 H   0  0  0  0  0  0  0  0  0  0  0  0
   -2.7710    5.7486    4.0657 H   0  0  0  0  0  0  0  0  0  0  0  0
   -1.2508    5.5666    3.1980 H   0  0  0  0  0  0  0  0  0  0  0  0
   -3.3250    0.6797   -1.3172 H   0  0  0  0  0  0  0  0  0  0  0  0
   -3.4192   -0.7638    1.2231 H   0  0  0  0  0  0  0  0  0  0  0  0
   -4.2277    0.7846    1.4190 H   0  0  0  0  0  0  0  0  0  0  0  0
   -4.8259   -0.2353    0.1215 H   0  0  0  0  0  0  0  0  0  0  0  0
    4.1567    2.5422   -1.9117 H   0  0  0  0  0  0  0  0  0  0  0  0
    4.4831    0.8784   -2.6293 H   0  0  0  0  0  0  0  0  0  0  0  0
    4.9506    1.2832   -0.9913 H   0  0  0  0  0  0  0  0  0  0  0  0
  1  2  1  0
  2  3  1  0
  3  4  1  0
  3  5  1  6
  5  6  1  0
  3  7  1  0
  7  8  1  0
  7  9  1  0
  9 10  1  0
  9 11  1  0
  1 12  1  0
 12 13  1  0
 13 14  1  0
 14 15  1  0
 14 16  1  0
 16 17  1  0
 17 18  1  0
 18 19  1  0
 19 20  1  0
 20 21  1  0
 20 22  1  0
 22 23  1  0
 23 24  1  0
 24 25  1  0
 23 26  1  0
 26 27  1  0
 26 28  1  0
 16 29  1  0
 29 30  1  0
 29 31  1  0
 31 32  1  0
 32 33  1  0
 32 34  1  0
 34 35  2  0
 34 36  1  0
 36 37  1  0
 36 38  1  0
 38 39  1  0
 38 40  1  0
 40 41  1  0
 40 42  1  6
 40 43  1  0
 43 44  1  0
 44 45  1  0
 43 46  1  0
 46 47  1  0
 47 48  2  0
 47 49  1  0
 49 50  1  0
 29 51  1  1
 51 52  1  0
 11  1  1  0
 49 13  1  0
 24 18  1  0
  1 53  1  1
  2 54  1  0
  2 55  1  0
  4 56  1  0
  4 57  1  0
  4 58  1  0
  6 59  1  0
  6 60  1  0
  6 61  1  0
  7 62  1  1
  8 63  1  0
  9 64  1  6
 10 65  1  0
 10 66  1  0
 10 67  1  0
 13 68  1  1
 14 69  1  1
 15 70  1  0
 15 71  1  0
 15 72  1  0
 16 73  1  1
 18 74  1  1
 20 75  1  1
 21 76  1  0
 21 77  1  0
 21 78  1  0
 22 79  1  0
 22 80  1  0
 23 81  1  1
 24 82  1  6
 25 83  1  0
 27 84  1  0
 27 85  1  0
 27 86  1  0
 28 87  1  0
 28 88  1  0
 28 89  1  0
 30 90  1  0
 30 91  1  0
 30 92  1  0
 31 93  1  0
 31 94  1  0
 32 95  1  1
 33 96  1  0
 33 97  1  0
 33 98  1  0
 36 99  1  6
 37100  1  0
 37101  1  0
 37102  1  0
 38103  1  1
 39104  1  0
 41105  1  0
 41106  1  0
 41107  1  0
 42108  1  0
 43109  1  1
 44110  1  0
 44111  1  0
 45112  1  0
 45113  1  0
 45114  1  0
 49115  1  6
 50116  1  0
 50117  1  0
 50118  1  0
 52119  1  0
 52120  1  0
 52121  1  0
M  END
$$$$
