
     RDKit          3D

 46 48  0  0  0  0  0  0  0  0999 V2000
    3.4278   -1.5571    1.3313 C   0  0  0  0  0  0  0  0  0  0  0  0
    3.1628   -0.7276    0.0962 C   0  0  1  0  0  0  0  0  0  0  0  0
    4.3847    0.0203   -0.3666 C   0  0  0  0  0  0  0  0  0  0  0  0
    4.9278    0.9668    0.5202 N   0  0  0  0  0  0  0  0  0  0  0  0
    5.5454    0.5093    1.7131 C   0  0  0  0  0  0  0  0  0  0  0  0
    4.2757    2.2312    0.6176 C   0  0  0  0  0  0  0  0  0  0  0  0
    2.7076   -1.6347   -0.8940 O   0  0  0  0  0  0  0  0  0  0  0  0
    1.4865   -1.5177   -1.5281 C   0  0  0  0  0  0  0  0  0  0  0  0
    0.5970   -0.5315   -1.2625 N   0  0  0  0  0  0  0  0  0  0  0  0
   -0.5839   -0.4454   -1.8987 C   0  0  0  0  0  0  0  0  0  0  0  0
   -1.5478    0.5826   -1.6479 N   0  0  0  0  0  0  0  0  0  0  0  0
   -2.6505    0.4039   -0.7895 C   0  0  0  0  0  0  0  0  0  0  0  0
   -3.5557    1.3974   -0.5888 C   0  0  0  0  0  0  0  0  0  0  0  0
   -4.6576    1.2715    0.2288 C   0  0  0  0  0  0  0  0  0  0  0  0
   -5.5625    2.2947    0.4106 C   0  0  0  0  0  0  0  0  0  0  0  0
   -6.6466    2.1006    1.2396 C   0  0  0  0  0  0  0  0  0  0  0  0
   -6.8674    0.9335    1.8940 C   0  0  0  0  0  0  0  0  0  0  0  0
   -5.9521   -0.1059    1.7126 C   0  0  0  0  0  0  0  0  0  0  0  0
   -6.1977   -1.6222    2.5414 Cl  0  0  0  0  0  0  0  0  0  0  0  0
   -4.8559    0.0641    0.8854 C   0  0  0  0  0  0  0  0  0  0  0  0
   -3.9247   -0.9216    0.6645 C   0  0  0  0  0  0  0  0  0  0  0  0
   -2.8515   -0.7738   -0.1433 N   0  0  0  0  0  0  0  0  0  0  0  0
   -0.9495   -1.3812   -2.8737 C   0  0  0  0  0  0  0  0  0  0  0  0
   -0.0696   -2.3545   -3.1348 N   0  0  0  0  0  0  0  0  0  0  0  0
    1.1272   -2.4321   -2.4824 C   0  0  0  0  0  0  0  0  0  0  0  0
    1.9769   -3.5188   -2.8660 C   0  0  0  0  0  0  0  0  0  0  0  0
    2.6671   -4.3859   -3.1560 N   0  0  0  0  0  0  0  0  0  0  0  0
    4.4766   -1.8128    1.4839 H   0  0  0  0  0  0  0  0  0  0  0  0
    2.9437   -1.0410    2.1955 H   0  0  0  0  0  0  0  0  0  0  0  0
    2.8918   -2.5552    1.2771 H   0  0  0  0  0  0  0  0  0  0  0  0
    2.3588    0.0248    0.2382 H   0  0  0  0  0  0  0  0  0  0  0  0
    4.2235    0.4959   -1.3562 H   0  0  0  0  0  0  0  0  0  0  0  0
    5.1715   -0.7647   -0.5577 H   0  0  0  0  0  0  0  0  0  0  0  0
    4.8742    0.2898    2.5619 H   0  0  0  0  0  0  0  0  0  0  0  0
    6.2993   -0.2818    1.5178 H   0  0  0  0  0  0  0  0  0  0  0  0
    6.1729    1.3785    2.0896 H   0  0  0  0  0  0  0  0  0  0  0  0
    4.5539    2.6960    1.5863 H   0  0  0  0  0  0  0  0  0  0  0  0
    3.1732    2.1721    0.5157 H   0  0  0  0  0  0  0  0  0  0  0  0
    4.7184    2.9189   -0.1605 H   0  0  0  0  0  0  0  0  0  0  0  0
   -1.4330    1.5071   -2.1205 H   0  0  0  0  0  0  0  0  0  0  0  0
   -3.4340    2.3585   -1.0859 H   0  0  0  0  0  0  0  0  0  0  0  0
   -5.3759    3.2226   -0.1141 H   0  0  0  0  0  0  0  0  0  0  0  0
   -7.3213    2.9279    1.3472 H   0  0  0  0  0  0  0  0  0  0  0  0
   -7.7148    0.7553    2.5538 H   0  0  0  0  0  0  0  0  0  0  0  0
   -4.0861   -1.8627    1.1800 H   0  0  0  0  0  0  0  0  0  0  0  0
   -1.9061   -1.2950   -3.3750 H   0  0  0  0  0  0  0  0  0  0  0  0
  1  2  1  0
  2  3  1  0
  3  4  1  0
  4  5  1  0
  4  6  1  0
  2  7  1  0
  7  8  1  0
  8  9  2  0
  9 10  1  0
 10 11  1  0
 11 12  1  0
 12 13  2  0
 13 14  1  0
 14 15  2  0
 15 16  1  0
 16 17  2  0
 17 18  1  0
 18 19  1  0
 18 20  2  0
 20 21  1  0
 21 22  2  0
 10 23  2  0
 23 24  1  0
 24 25  2  0
 25 26  1  0
 26 27  3  0
 25  8  1  0
 22 12  1  0
 20 14  1  0
  1 28  1  0
  1 29  1  0
  1 30  1  0
  2 31  1  1
  3 32  1  0
  3 33  1  0
  5 34  1  0
  5 35  1  0
  5 36  1  0
  6 37  1  0
  6 38  1  0
  6 39  1  0
 11 40  1  0
 13 41  1  0
 15 42  1  0
 16 43  1  0
 17 44  1  0
 21 45  1  0
 23 46  1  0
M  END
$$$$
