
     RDKit          3D

 39 42  0  0  0  0  0  0  0  0999 V2000
   -6.2866    1.2926   -0.5301 C   0  0  0  0  0  0  0  0  0  0  0  0
   -6.1220   -0.0444   -0.8119 C   0  0  0  0  0  0  0  0  0  0  0  0
   -5.0661   -0.7326   -0.2324 C   0  0  0  0  0  0  0  0  0  0  0  0
   -4.2077   -0.0856    0.6039 C   0  0  0  0  0  0  0  0  0  0  0  0
   -3.1484   -0.7498    1.1938 O   0  0  0  0  0  0  0  0  0  0  0  0
   -1.9376   -0.7670    0.5000 C   0  0  0  0  0  0  0  0  0  0  0  0
   -1.7958   -0.2103   -0.7521 C   0  0  0  0  0  0  0  0  0  0  0  0
   -0.5746   -0.2588   -1.3840 C   0  0  0  0  0  0  0  0  0  0  0  0
    0.5296   -0.8619   -0.7818 C   0  0  0  0  0  0  0  0  0  0  0  0
    1.7836   -0.9303   -1.4241 N   0  0  0  0  0  0  0  0  0  0  0  0
    2.9386   -1.1898   -0.6419 C   0  0  0  0  0  0  0  0  0  0  0  0
    3.3126   -2.4034   -0.2157 N   0  0  0  0  0  0  0  0  0  0  0  0
    4.4212   -2.6140    0.5278 C   0  0  0  0  0  0  0  0  0  0  0  0
    5.1768   -1.5533    0.8491 N   0  0  0  0  0  0  0  0  0  0  0  0
    4.8410   -0.3186    0.4432 C   0  0  0  0  0  0  0  0  0  0  0  0
    5.6192    0.7996    0.7591 C   0  0  0  0  0  0  0  0  0  0  0  0
    5.2617    2.0612    0.3247 C   0  0  0  0  0  0  0  0  0  0  0  0
    4.1282    2.2862   -0.4375 C   0  0  0  0  0  0  0  0  0  0  0  0
    3.3614    1.1850   -0.7479 C   0  0  0  0  0  0  0  0  0  0  0  0
    3.7181   -0.0720   -0.3145 C   0  0  0  0  0  0  0  0  0  0  0  0
    0.3449   -1.4039    0.4658 C   0  0  0  0  0  0  0  0  0  0  0  0
   -0.8471   -1.3707    1.1100 C   0  0  0  0  0  0  0  0  0  0  0  0
   -4.3646    1.2567    0.8929 C   0  0  0  0  0  0  0  0  0  0  0  0
   -5.4049    1.9538    0.3277 C   0  0  0  0  0  0  0  0  0  0  0  0
   -7.1221    1.8278   -0.9913 H   0  0  0  0  0  0  0  0  0  0  0  0
   -6.8189   -0.5562   -1.4866 H   0  0  0  0  0  0  0  0  0  0  0  0
   -4.9703   -1.7928   -0.4799 H   0  0  0  0  0  0  0  0  0  0  0  0
   -2.6429    0.2676   -1.2433 H   0  0  0  0  0  0  0  0  0  0  0  0
   -0.4272    0.1644   -2.3604 H   0  0  0  0  0  0  0  0  0  0  0  0
    1.8681   -0.7934   -2.4451 H   0  0  0  0  0  0  0  0  0  0  0  0
    4.6934   -3.6290    0.8582 H   0  0  0  0  0  0  0  0  0  0  0  0
    6.5130    0.6243    1.3601 H   0  0  0  0  0  0  0  0  0  0  0  0
    5.8551    2.9263    0.5647 H   0  0  0  0  0  0  0  0  0  0  0  0
    3.8656    3.2814   -0.7707 H   0  0  0  0  0  0  0  0  0  0  0  0
    2.4592    1.3491   -1.3509 H   0  0  0  0  0  0  0  0  0  0  0  0
    1.2011   -1.8826    0.9517 H   0  0  0  0  0  0  0  0  0  0  0  0
   -0.9844   -1.7981    2.0863 H   0  0  0  0  0  0  0  0  0  0  0  0
   -3.6451    1.7311    1.5701 H   0  0  0  0  0  0  0  0  0  0  0  0
   -5.5263    3.0113    0.5588 H   0  0  0  0  0  0  0  0  0  0  0  0
  1  2  2  0
  2  3  1  0
  3  4  2  0
  4  5  1  0
  5  6  1  0
  6  7  2  0
  7  8  1  0
  8  9  2  0
  9 10  1  0
 10 11  1  0
 11 12  2  0
 12 13  1  0
 13 14  2  0
 14 15  1  0
 15 16  2  0
 16 17  1  0
 17 18  2  0
 18 19  1  0
 19 20  2  0
  9 21  1  0
 21 22  2  0
  4 23  1  0
 23 24  2  0
 24  1  1  0
 22  6  1  0
 20 11  1  0
 20 15  1  0
  1 25  1  0
  2 26  1  0
  3 27  1  0
  7 28  1  0
  8 29  1  0
 10 30  1  0
 13 31  1  0
 16 32  1  0
 17 33  1  0
 18 34  1  0
 19 35  1  0
 21 36  1  0
 22 37  1  0
 23 38  1  0
 24 39  1  0
M  END
$$$$
