
     RDKit          3D

 70 73  0  0  0  0  0  0  0  0999 V2000
   -3.5836   -6.2724    2.1504 C   0  0  0  0  0  0  0  0  0  0  0  0
   -3.3517   -5.1736    1.2543 N   0  0  0  0  0  0  0  0  0  0  0  0
   -4.1697   -4.0532    1.6105 C   0  0  0  0  0  0  0  0  0  0  0  0
   -3.9477   -2.8346    0.7732 C   0  0  0  0  0  0  0  0  0  0  0  0
   -2.4706   -2.6225    0.5275 C   0  0  0  0  0  0  0  0  0  0  0  0
   -2.0684   -1.2581    0.5047 N   0  0  0  0  0  0  0  0  0  0  0  0
   -1.4666   -0.6700   -0.6828 C   0  0  0  0  0  0  0  0  0  0  0  0
   -1.3448   -1.4600   -1.6201 O   0  0  0  0  0  0  0  0  0  0  0  0
   -1.0784    0.7192   -0.6605 C   0  0  0  0  0  0  0  0  0  0  0  0
   -1.9426    1.5538    0.1017 C   0  0  0  0  0  0  0  0  0  0  0  0
   -1.7717    2.8683    0.0164 N   0  0  0  0  0  0  0  0  0  0  0  0
   -0.8372    3.4569   -0.7420 C   0  0  0  0  0  0  0  0  0  0  0  0
   -0.6906    4.8637   -0.8066 N   0  0  0  0  0  0  0  0  0  0  0  0
   -1.4395    5.8499   -0.1640 C   0  0  0  0  0  0  0  0  0  0  0  0
   -1.0520    7.2003   -0.2636 C   0  0  0  0  0  0  0  0  0  0  0  0
   -1.7236    8.2269    0.3239 C   0  0  0  0  0  0  0  0  0  0  0  0
   -1.1451    9.8817    0.1310 Cl  0  0  0  0  0  0  0  0  0  0  0  0
   -2.8455    7.9475    1.0599 C   0  0  0  0  0  0  0  0  0  0  0  0
   -3.2957    6.6565    1.2098 C   0  0  0  0  0  0  0  0  0  0  0  0
   -4.7364    6.2753    2.1518 Cl  0  0  0  0  0  0  0  0  0  0  0  0
   -2.5713    5.6365    0.5867 C   0  0  0  0  0  0  0  0  0  0  0  0
   -0.0385    2.6511   -1.4441 N   0  0  0  0  0  0  0  0  0  0  0  0
   -0.1257    1.2602   -1.4278 C   0  0  0  0  0  0  0  0  0  0  0  0
    0.9131    0.6123   -2.0845 N   0  0  0  0  0  0  0  0  0  0  0  0
    1.3884   -0.7190   -2.0191 C   0  0  0  0  0  0  0  0  0  0  0  0
    1.6286   -1.1617   -0.6100 C   0  0  0  0  0  0  0  0  0  0  0  0
    3.0639   -1.5232   -0.3577 C   0  0  0  0  0  0  0  0  0  0  0  0
    3.9873   -0.4108   -0.7315 C   0  0  0  0  0  0  0  0  0  0  0  0
    5.3810   -0.7975   -0.6688 N   0  0  0  0  0  0  0  0  0  0  0  0
    5.7786   -1.2282    0.6600 C   0  0  0  0  0  0  0  0  0  0  0  0
    6.2258    0.2786   -1.1476 C   0  0  0  0  0  0  0  0  0  0  0  0
    3.6931    0.1137   -2.1060 C   0  0  0  0  0  0  0  0  0  0  0  0
    2.7472   -0.7995   -2.8019 C   0  0  0  0  0  0  0  0  0  0  0  0
   -1.7351   -3.4499    1.5608 C   0  0  0  0  0  0  0  0  0  0  0  0
   -1.9480   -4.9027    1.1808 C   0  0  0  0  0  0  0  0  0  0  0  0
   -4.4563   -6.0750    2.8208 H   0  0  0  0  0  0  0  0  0  0  0  0
   -2.6866   -6.5305    2.7183 H   0  0  0  0  0  0  0  0  0  0  0  0
   -3.9079   -7.1472    1.5163 H   0  0  0  0  0  0  0  0  0  0  0  0
   -4.1375   -3.8349    2.7137 H   0  0  0  0  0  0  0  0  0  0  0  0
   -5.2385   -4.3733    1.4320 H   0  0  0  0  0  0  0  0  0  0  0  0
   -4.5072   -2.9961   -0.1929 H   0  0  0  0  0  0  0  0  0  0  0  0
   -4.4007   -1.9667    1.2488 H   0  0  0  0  0  0  0  0  0  0  0  0
   -2.2522   -3.0959   -0.4562 H   0  0  0  0  0  0  0  0  0  0  0  0
   -2.1743   -0.6417    1.3247 H   0  0  0  0  0  0  0  0  0  0  0  0
   -2.7053    1.0923    0.7084 H   0  0  0  0  0  0  0  0  0  0  0  0
    0.1021    5.1935   -1.4361 H   0  0  0  0  0  0  0  0  0  0  0  0
   -0.1591    7.4066   -0.8509 H   0  0  0  0  0  0  0  0  0  0  0  0
   -3.3987    8.7499    1.5384 H   0  0  0  0  0  0  0  0  0  0  0  0
   -2.9554    4.6248    0.7202 H   0  0  0  0  0  0  0  0  0  0  0  0
    1.4510    1.2465   -2.8027 H   0  0  0  0  0  0  0  0  0  0  0  0
    0.7484   -1.4207   -2.5579 H   0  0  0  0  0  0  0  0  0  0  0  0
    1.2675   -0.4058    0.1362 H   0  0  0  0  0  0  0  0  0  0  0  0
    1.0146   -2.0909   -0.4191 H   0  0  0  0  0  0  0  0  0  0  0  0
    3.2843   -2.4763   -0.8849 H   0  0  0  0  0  0  0  0  0  0  0  0
    3.1242   -1.6894    0.7614 H   0  0  0  0  0  0  0  0  0  0  0  0
    3.7913    0.4343   -0.0091 H   0  0  0  0  0  0  0  0  0  0  0  0
    5.1181   -2.0738    0.9427 H   0  0  0  0  0  0  0  0  0  0  0  0
    6.7987   -1.6637    0.5652 H   0  0  0  0  0  0  0  0  0  0  0  0
    5.7259   -0.4171    1.4115 H   0  0  0  0  0  0  0  0  0  0  0  0
    6.6037    0.0040   -2.1525 H   0  0  0  0  0  0  0  0  0  0  0  0
    5.6032    1.1830   -1.2421 H   0  0  0  0  0  0  0  0  0  0  0  0
    7.0598    0.4237   -0.4243 H   0  0  0  0  0  0  0  0  0  0  0  0
    4.6476    0.1077   -2.7053 H   0  0  0  0  0  0  0  0  0  0  0  0
    3.3507    1.1719   -2.0874 H   0  0  0  0  0  0  0  0  0  0  0  0
    3.0663   -1.8379   -2.7188 H   0  0  0  0  0  0  0  0  0  0  0  0
    2.5647   -0.5057   -3.8486 H   0  0  0  0  0  0  0  0  0  0  0  0
   -2.1609   -3.3294    2.5786 H   0  0  0  0  0  0  0  0  0  0  0  0
   -0.6520   -3.2335    1.5515 H   0  0  0  0  0  0  0  0  0  0  0  0
   -1.6045   -5.0146    0.1380 H   0  0  0  0  0  0  0  0  0  0  0  0
   -1.3518   -5.5336    1.8863 H   0  0  0  0  0  0  0  0  0  0  0  0
  1  2  1  0
  2  3  1  0
  3  4  1  0
  4  5  1  0
  5  6  1  0
  6  7  1  0
  7  8  2  0
  7  9  1  0
  9 10  2  0
 10 11  1  0
 11 12  2  0
 12 13  1  0
 13 14  1  0
 14 15  2  0
 15 16  1  0
 16 17  1  0
 16 18  2  0
 18 19  1  0
 19 20  1  0
 19 21  2  0
 12 22  1  0
 22 23  2  0
 23 24  1  0
 24 25  1  0
 25 26  1  0
 26 27  1  0
 27 28  1  0
 28 29  1  0
 29 30  1  0
 29 31  1  0
 28 32  1  0
 32 33  1  0
  5 34  1  0
 34 35  1  0
 35  2  1  0
 23  9  1  0
 33 25  1  0
 21 14  1  0
  1 36  1  0
  1 37  1  0
  1 38  1  0
  3 39  1  0
  3 40  1  0
  4 41  1  0
  4 42  1  0
  5 43  1  0
  6 44  1  0
 10 45  1  0
 13 46  1  0
 15 47  1  0
 18 48  1  0
 21 49  1  0
 24 50  1  0
 25 51  1  0
 26 52  1  0
 26 53  1  0
 27 54  1  0
 27 55  1  0
 28 56  1  0
 30 57  1  0
 30 58  1  0
 30 59  1  0
 31 60  1  0
 31 61  1  0
 31 62  1  0
 32 63  1  0
 32 64  1  0
 33 65  1  0
 33 66  1  0
 34 67  1  0
 34 68  1  0
 35 69  1  0
 35 70  1  0
M  END
$$$$
