
     RDKit          3D

 24 24  0  0  0  0  0  0  0  0999 V2000
    3.1650   -1.1499   -0.3612 C   0  0  0  0  0  0  0  0  0  0  0  0
    2.6406    0.1230    0.2238 C   0  0  0  0  0  0  0  0  0  0  0  0
    1.2361    0.1477    0.3835 O   0  0  0  0  0  0  0  0  0  0  0  0
    0.3374    0.0107   -0.6602 C   0  0  0  0  0  0  0  0  0  0  0  0
    0.8369   -0.1432   -1.8054 O   0  0  0  0  0  0  0  0  0  0  0  0
   -1.0457    0.0818   -0.1524 C   0  0  0  0  0  0  0  0  0  0  0  0
   -1.6574    1.3165   -0.0872 C   0  0  0  0  0  0  0  0  0  0  0  0
   -1.1456    2.6688   -0.4576 C   0  0  0  0  0  0  0  0  0  0  0  0
   -2.8953    1.0603    0.4097 N   0  0  0  0  0  0  0  0  0  0  0  0
   -3.0787   -0.2235    0.6484 N   0  0  0  0  0  0  0  0  0  0  0  0
   -1.9375   -0.8921    0.3101 C   0  0  0  0  0  0  0  0  0  0  0  0
   -1.5398   -2.3187    0.3503 C   0  0  0  0  0  0  0  0  0  0  0  0
    2.4259   -1.6734   -1.0199 H   0  0  0  0  0  0  0  0  0  0  0  0
    3.5547   -1.8579    0.4070 H   0  0  0  0  0  0  0  0  0  0  0  0
    4.0656   -0.8837   -0.9866 H   0  0  0  0  0  0  0  0  0  0  0  0
    3.0574    0.1638    1.2721 H   0  0  0  0  0  0  0  0  0  0  0  0
    3.0473    1.0001   -0.2808 H   0  0  0  0  0  0  0  0  0  0  0  0
   -0.0563    2.7350   -0.2122 H   0  0  0  0  0  0  0  0  0  0  0  0
   -1.1915    2.7324   -1.5702 H   0  0  0  0  0  0  0  0  0  0  0  0
   -1.7611    3.4358    0.0094 H   0  0  0  0  0  0  0  0  0  0  0  0
   -3.6033    1.8282    0.5728 H   0  0  0  0  0  0  0  0  0  0  0  0
   -2.4394   -2.9083    0.6611 H   0  0  0  0  0  0  0  0  0  0  0  0
   -1.2494   -2.7260   -0.6507 H   0  0  0  0  0  0  0  0  0  0  0  0
   -0.7662   -2.5275    1.1218 H   0  0  0  0  0  0  0  0  0  0  0  0
  1  2  1  0
  2  3  1  0
  3  4  1  0
  4  5  2  0
  4  6  1  0
  6  7  2  0
  7  8  1  0
  7  9  1  0
  9 10  1  0
 10 11  2  0
 11 12  1  0
 11  6  1  0
  1 13  1  0
  1 14  1  0
  1 15  1  0
  2 16  1  0
  2 17  1  0
  8 18  1  0
  8 19  1  0
  8 20  1  0
  9 21  1  0
 12 22  1  0
 12 23  1  0
 12 24  1  0
M  END
$$$$
