
     RDKit          3D

 33 34  0  0  0  0  0  0  0  0999 V2000
    3.9232    1.9483    1.0436 C   0  0  0  0  0  0  0  0  0  0  0  0
    2.8878    1.0769    0.4236 C   0  0  0  0  0  0  0  0  0  0  0  0
    1.9624    1.5768   -0.4797 C   0  0  0  0  0  0  0  0  0  0  0  0
    1.0281    0.7174   -1.0196 C   0  0  0  0  0  0  0  0  0  0  0  0
    0.9644   -0.6297   -0.7047 C   0  0  0  0  0  0  0  0  0  0  0  0
   -0.0096   -1.4289   -1.3121 N   0  0  0  0  0  0  0  0  0  0  0  0
   -1.4822   -0.8187   -2.0166 S   0  0  0  0  0  0  0  0  0  0  0  0
   -1.1881    0.2172   -3.0850 O   0  0  0  0  0  0  0  0  0  0  0  0
   -2.2943   -1.9452   -2.5862 O   0  0  0  0  0  0  0  0  0  0  0  0
   -2.4842   -0.0190   -0.8152 C   0  0  0  0  0  0  0  0  0  0  0  0
   -3.3780   -0.8084   -0.1005 C   0  0  0  0  0  0  0  0  0  0  0  0
   -4.2462   -0.3688    0.8768 C   0  0  0  0  0  0  0  0  0  0  0  0
   -4.2205    0.9739    1.1659 C   0  0  0  0  0  0  0  0  0  0  0  0
   -3.3497    1.7935    0.4814 C   0  0  0  0  0  0  0  0  0  0  0  0
   -2.4961    1.3203   -0.4891 C   0  0  0  0  0  0  0  0  0  0  0  0
    1.8875   -1.1160    0.1933 C   0  0  0  0  0  0  0  0  0  0  0  0
    2.8178   -0.2529    0.7286 C   0  0  0  0  0  0  0  0  0  0  0  0
    1.9204   -2.5088    0.6169 C   0  0  0  0  0  0  0  0  0  0  0  0
    2.8671   -2.9656    1.5150 O   0  0  0  0  0  0  0  0  0  0  0  0
    1.2011   -3.4806    0.3104 O   0  0  0  0  0  0  0  0  0  0  0  0
    3.5821    2.3044    2.0499 H   0  0  0  0  0  0  0  0  0  0  0  0
    4.1144    2.8131    0.3739 H   0  0  0  0  0  0  0  0  0  0  0  0
    4.8970    1.4184    1.1454 H   0  0  0  0  0  0  0  0  0  0  0  0
    2.0441    2.6296   -0.6993 H   0  0  0  0  0  0  0  0  0  0  0  0
    0.3767    1.2297   -1.7032 H   0  0  0  0  0  0  0  0  0  0  0  0
    0.1061   -2.4615   -1.3812 H   0  0  0  0  0  0  0  0  0  0  0  0
   -3.4213   -1.8789   -0.3080 H   0  0  0  0  0  0  0  0  0  0  0  0
   -4.9076   -1.0416    1.3850 H   0  0  0  0  0  0  0  0  0  0  0  0
   -4.8728    1.4175    1.9268 H   0  0  0  0  0  0  0  0  0  0  0  0
   -3.2641    2.8743    0.6487 H   0  0  0  0  0  0  0  0  0  0  0  0
   -1.8022    1.9294   -1.0477 H   0  0  0  0  0  0  0  0  0  0  0  0
    3.5425   -0.6376    1.4341 H   0  0  0  0  0  0  0  0  0  0  0  0
    3.2941   -3.8786    1.4290 H   0  0  0  0  0  0  0  0  0  0  0  0
  1  2  1  0
  2  3  2  0
  3  4  1  0
  4  5  2  0
  5  6  1  0
  6  7  1  0
  7  8  2  0
  7  9  2  0
  7 10  1  0
 10 11  2  0
 11 12  1  0
 12 13  2  0
 13 14  1  0
 14 15  2  0
  5 16  1  0
 16 17  2  0
 16 18  1  0
 18 19  1  0
 18 20  2  0
 17  2  1  0
 15 10  1  0
  1 21  1  0
  1 22  1  0
  1 23  1  0
  3 24  1  0
  4 25  1  0
  6 26  1  0
 11 27  1  0
 12 28  1  0
 13 29  1  0
 14 30  1  0
 15 31  1  0
 17 32  1  0
 19 33  1  0
M  END
$$$$
