
     RDKit          3D

 57 59  0  0  0  0  0  0  0  0999 V2000
    7.3167   -1.8730    0.0675 C   0  0  0  0  0  0  0  0  0  0  0  0
    6.8736   -0.4564    0.2192 C   0  0  0  0  0  0  0  0  0  0  0  0
    5.5289   -0.1618   -0.1070 N   0  0  0  0  0  0  0  0  0  0  0  0
    5.1370    1.2228    0.0618 C   0  0  0  0  0  0  0  0  0  0  0  0
    5.7799    2.1586   -0.9155 C   0  0  0  0  0  0  0  0  0  0  0  0
    5.0473   -0.7106   -1.3559 C   0  0  0  0  0  0  0  0  0  0  0  0
    3.6159   -0.2502   -1.5395 C   0  0  0  0  0  0  0  0  0  0  0  0
    2.7819   -0.6855   -0.4945 O   0  0  0  0  0  0  0  0  0  0  0  0
    1.4458   -0.3131   -0.5184 C   0  0  0  0  0  0  0  0  0  0  0  0
    0.7219    0.4458   -1.4058 C   0  0  0  0  0  0  0  0  0  0  0  0
   -0.6168    0.6615   -1.1806 C   0  0  0  0  0  0  0  0  0  0  0  0
   -1.2360    0.1254   -0.0775 C   0  0  0  0  0  0  0  0  0  0  0  0
   -0.5314   -0.6448    0.8353 C   0  0  0  0  0  0  0  0  0  0  0  0
    0.8382   -0.8634    0.6007 C   0  0  0  0  0  0  0  0  0  0  0  0
   -2.6430    0.3560    0.1897 C   0  0  0  0  0  0  0  0  0  0  0  0
   -3.3145    1.4745    0.0715 C   0  0  0  0  0  0  0  0  0  0  0  0
   -2.6799    3.0278   -0.4465 Cl  0  0  0  0  0  0  0  0  0  0  0  0
   -4.7274    1.6540    0.2967 C   0  0  0  0  0  0  0  0  0  0  0  0
   -5.3154    2.6767    1.0092 C   0  0  0  0  0  0  0  0  0  0  0  0
   -6.6853    2.7906    1.1618 C   0  0  0  0  0  0  0  0  0  0  0  0
   -7.5293    1.8748    0.6011 C   0  0  0  0  0  0  0  0  0  0  0  0
   -7.0009    0.8251   -0.1259 C   0  0  0  0  0  0  0  0  0  0  0  0
   -5.6329    0.7416   -0.2584 C   0  0  0  0  0  0  0  0  0  0  0  0
   -3.3846   -0.8083    0.6821 C   0  0  0  0  0  0  0  0  0  0  0  0
   -4.2721   -0.8120    1.7407 C   0  0  0  0  0  0  0  0  0  0  0  0
   -4.9581   -1.9358    2.1373 C   0  0  0  0  0  0  0  0  0  0  0  0
   -4.7763   -3.1284    1.4712 C   0  0  0  0  0  0  0  0  0  0  0  0
   -3.8757   -3.1015    0.4078 C   0  0  0  0  0  0  0  0  0  0  0  0
   -3.1683   -1.9990   -0.0223 C   0  0  0  0  0  0  0  0  0  0  0  0
    7.7209   -2.0795   -0.9416 H   0  0  0  0  0  0  0  0  0  0  0  0
    6.5526   -2.6300    0.3332 H   0  0  0  0  0  0  0  0  0  0  0  0
    8.1568   -2.0319    0.7804 H   0  0  0  0  0  0  0  0  0  0  0  0
    7.0533   -0.1266    1.2688 H   0  0  0  0  0  0  0  0  0  0  0  0
    7.5797    0.1775   -0.3908 H   0  0  0  0  0  0  0  0  0  0  0  0
    4.0522    1.3473    0.0966 H   0  0  0  0  0  0  0  0  0  0  0  0
    5.5011    1.5234    1.0877 H   0  0  0  0  0  0  0  0  0  0  0  0
    5.0235    2.9721   -1.1279 H   0  0  0  0  0  0  0  0  0  0  0  0
    6.6747    2.6861   -0.5256 H   0  0  0  0  0  0  0  0  0  0  0  0
    5.9737    1.7116   -1.9049 H   0  0  0  0  0  0  0  0  0  0  0  0
    5.0154   -1.8154   -1.2575 H   0  0  0  0  0  0  0  0  0  0  0  0
    5.6202   -0.4259   -2.2330 H   0  0  0  0  0  0  0  0  0  0  0  0
    3.2581   -0.8102   -2.4537 H   0  0  0  0  0  0  0  0  0  0  0  0
    3.5013    0.8044   -1.7947 H   0  0  0  0  0  0  0  0  0  0  0  0
    1.3273    0.7961   -2.2112 H   0  0  0  0  0  0  0  0  0  0  0  0
   -1.1385    1.2627   -1.9035 H   0  0  0  0  0  0  0  0  0  0  0  0
   -1.0620   -1.0559    1.7062 H   0  0  0  0  0  0  0  0  0  0  0  0
    1.2738   -1.4855    1.3949 H   0  0  0  0  0  0  0  0  0  0  0  0
   -4.6402    3.4141    1.4620 H   0  0  0  0  0  0  0  0  0  0  0  0
   -7.1229    3.6136    1.7336 H   0  0  0  0  0  0  0  0  0  0  0  0
   -8.6053    1.8928    0.6750 H   0  0  0  0  0  0  0  0  0  0  0  0
   -7.6335    0.0608   -0.5984 H   0  0  0  0  0  0  0  0  0  0  0  0
   -5.2587   -0.0995   -0.8474 H   0  0  0  0  0  0  0  0  0  0  0  0
   -4.4104    0.1374    2.2703 H   0  0  0  0  0  0  0  0  0  0  0  0
   -5.6483   -1.8978    2.9731 H   0  0  0  0  0  0  0  0  0  0  0  0
   -5.2805   -4.0649    1.7203 H   0  0  0  0  0  0  0  0  0  0  0  0
   -3.7357   -4.0579   -0.1211 H   0  0  0  0  0  0  0  0  0  0  0  0
   -2.4878   -2.1101   -0.8758 H   0  0  0  0  0  0  0  0  0  0  0  0
  1  2  1  0
  2  3  1  0
  3  4  1  0
  4  5  1  0
  3  6  1  0
  6  7  1  0
  7  8  1  0
  8  9  1  0
  9 10  2  0
 10 11  1  0
 11 12  2  0
 12 13  1  0
 13 14  2  0
 12 15  1  0
 15 16  2  3
 16 17  1  0
 16 18  1  0
 18 19  2  0
 19 20  1  0
 20 21  2  0
 21 22  1  0
 22 23  2  0
 15 24  1  0
 24 25  2  0
 25 26  1  0
 26 27  2  0
 27 28  1  0
 28 29  2  0
 14  9  1  0
 23 18  1  0
 29 24  1  0
  1 30  1  0
  1 31  1  0
  1 32  1  0
  2 33  1  0
  2 34  1  0
  4 35  1  0
  4 36  1  0
  5 37  1  0
  5 38  1  0
  5 39  1  0
  6 40  1  0
  6 41  1  0
  7 42  1  0
  7 43  1  0
 10 44  1  0
 11 45  1  0
 13 46  1  0
 14 47  1  0
 19 48  1  0
 20 49  1  0
 21 50  1  0
 22 51  1  0
 23 52  1  0
 25 53  1  0
 26 54  1  0
 27 55  1  0
 28 56  1  0
 29 57  1  0
M  END
$$$$
