
     RDKit          3D

 54 56  0  0  0  0  0  0  0  0999 V2000
   -1.7445    1.5099    0.3042 C   0  0  1  0  0  0  0  0  0  0  0  0
   -2.0453    0.1941   -0.3046 C   0  0  0  0  0  0  0  0  0  0  0  0
   -3.4272   -0.2315   -0.3801 C   0  0  0  0  0  0  0  0  0  0  0  0
   -3.5357   -1.4898   -0.9022 N   0  0  0  0  0  0  0  0  0  0  0  0
   -4.6884   -2.1157   -1.1121 C   0  0  0  0  0  0  0  0  0  0  0  0
   -4.8208   -3.4232   -1.6537 N   0  0  0  0  0  0  0  0  0  0  0  0
   -5.8736   -1.5015   -0.8009 C   0  0  0  0  0  0  0  0  0  0  0  0
   -5.8578   -0.2357   -0.2721 C   0  0  0  0  0  0  0  0  0  0  0  0
   -7.0836    0.5152    0.0959 C   0  0  0  0  0  0  0  0  0  0  0  0
   -4.6325    0.3373   -0.0883 C   0  0  0  0  0  0  0  0  0  0  0  0
   -2.1541    1.5025    1.7480 C   0  0  0  0  0  0  0  0  0  0  0  0
   -1.1355    0.6377    2.3435 N   0  0  0  0  0  0  0  0  0  0  0  0
    0.0946    0.8644    1.5901 C   0  0  0  0  0  0  0  0  0  0  0  0
   -0.2407    1.7595    0.4334 C   0  0  1  0  0  0  0  0  0  0  0  0
    0.4454    1.5855   -0.7707 N   0  0  0  0  0  0  0  0  0  0  0  0
    1.8138    1.8383   -0.9053 C   0  0  0  0  0  0  0  0  0  0  0  0
    2.6671    0.8315   -0.1949 C   0  0  0  0  0  0  0  0  0  0  0  0
    2.4605   -0.5222   -0.6744 N   0  0  0  0  0  0  0  0  0  0  0  0
    3.3276   -1.4196    0.0640 C   0  0  0  0  0  0  0  0  0  0  0  0
    4.7552   -1.1167   -0.0819 C   0  0  0  0  0  0  0  0  0  0  0  0
    5.4815   -0.2755    0.7319 C   0  0  0  0  0  0  0  0  0  0  0  0
    6.8227    0.0147    0.6004 C   0  0  0  0  0  0  0  0  0  0  0  0
    7.5007   -0.5924   -0.4413 C   0  0  0  0  0  0  0  0  0  0  0  0
    9.2089   -0.2019   -0.5817 Cl  0  0  0  0  0  0  0  0  0  0  0  0
    6.8286   -1.4580   -1.3073 C   0  0  0  0  0  0  0  0  0  0  0  0
    5.4880   -1.6999   -1.1133 C   0  0  0  0  0  0  0  0  0  0  0  0
   -2.2132    2.3641   -0.2435 H   0  0  0  0  0  0  0  0  0  0  0  0
   -1.4798   -0.6263    0.2458 H   0  0  0  0  0  0  0  0  0  0  0  0
   -1.6188    0.0939   -1.3469 H   0  0  0  0  0  0  0  0  0  0  0  0
   -5.1029   -4.3324   -1.2246 H   0  0  0  0  0  0  0  0  0  0  0  0
   -4.5991   -3.5288   -2.6831 H   0  0  0  0  0  0  0  0  0  0  0  0
   -6.8397   -1.9679   -0.9521 H   0  0  0  0  0  0  0  0  0  0  0  0
   -7.6879    0.7410   -0.8103 H   0  0  0  0  0  0  0  0  0  0  0  0
   -6.8097    1.4489    0.6138 H   0  0  0  0  0  0  0  0  0  0  0  0
   -7.7481   -0.0550    0.7668 H   0  0  0  0  0  0  0  0  0  0  0  0
   -4.6016    1.3356    0.2957 H   0  0  0  0  0  0  0  0  0  0  0  0
   -3.1553    1.1494    1.9810 H   0  0  0  0  0  0  0  0  0  0  0  0
   -1.9495    2.5184    2.1725 H   0  0  0  0  0  0  0  0  0  0  0  0
   -0.9343    0.8670    3.3371 H   0  0  0  0  0  0  0  0  0  0  0  0
    0.4769   -0.0952    1.2034 H   0  0  0  0  0  0  0  0  0  0  0  0
    0.8290    1.4165    2.2278 H   0  0  0  0  0  0  0  0  0  0  0  0
   -0.1698    2.8251    0.8100 H   0  0  0  0  0  0  0  0  0  0  0  0
   -0.1199    1.6334   -1.6441 H   0  0  0  0  0  0  0  0  0  0  0  0
    2.1354    1.9388   -1.9914 H   0  0  0  0  0  0  0  0  0  0  0  0
    2.0789    2.8554   -0.4586 H   0  0  0  0  0  0  0  0  0  0  0  0
    3.7646    1.0376   -0.4308 H   0  0  0  0  0  0  0  0  0  0  0  0
    2.6353    0.8601    0.8987 H   0  0  0  0  0  0  0  0  0  0  0  0
    2.6161   -0.5738   -1.6977 H   0  0  0  0  0  0  0  0  0  0  0  0
    3.1617   -2.4718   -0.2368 H   0  0  0  0  0  0  0  0  0  0  0  0
    3.0345   -1.3605    1.1477 H   0  0  0  0  0  0  0  0  0  0  0  0
    4.9074    0.1833    1.5424 H   0  0  0  0  0  0  0  0  0  0  0  0
    7.2661    0.7008    1.3209 H   0  0  0  0  0  0  0  0  0  0  0  0
    7.4311   -1.8861   -2.0892 H   0  0  0  0  0  0  0  0  0  0  0  0
    5.0378   -2.3786   -1.8206 H   0  0  0  0  0  0  0  0  0  0  0  0
  1  2  1  0
  2  3  1  0
  3  4  2  0
  4  5  1  0
  5  6  1  0
  5  7  2  0
  7  8  1  0
  8  9  1  0
  8 10  2  0
  1 11  1  0
 11 12  1  0
 12 13  1  0
 13 14  1  0
 14 15  1  0
 15 16  1  0
 16 17  1  0
 17 18  1  0
 18 19  1  0
 19 20  1  0
 20 21  2  0
 21 22  1  0
 22 23  2  0
 23 24  1  0
 23 25  1  0
 25 26  2  0
 14  1  1  0
 26 20  1  0
 10  3  1  0
  1 27  1  6
  2 28  1  0
  2 29  1  0
  6 30  1  0
  6 31  1  0
  7 32  1  0
  9 33  1  0
  9 34  1  0
  9 35  1  0
 10 36  1  0
 11 37  1  0
 11 38  1  0
 12 39  1  0
 13 40  1  0
 13 41  1  0
 14 42  1  1
 15 43  1  0
 16 44  1  0
 16 45  1  0
 17 46  1  0
 17 47  1  0
 18 48  1  0
 19 49  1  0
 19 50  1  0
 21 51  1  0
 22 52  1  0
 25 53  1  0
 26 54  1  0
M  END
$$$$
