
     RDKit          3D

 31 31  0  0  0  0  0  0  0  0999 V2000
   -0.4528   -0.5235    0.4423 C   0  0  2  0  0  0  0  0  0  0  0  0
   -1.4064    0.4690   -0.1197 C   0  0  0  0  0  0  0  0  0  0  0  0
   -2.7984    0.3487    0.3134 C   0  0  0  0  0  0  0  0  0  0  0  0
   -3.5103   -0.9129   -0.0349 C   0  0  0  0  0  0  0  0  0  0  0  0
   -3.5587    1.5612   -0.2317 C   0  0  0  0  0  0  0  0  0  0  0  0
    0.9064   -0.2088   -0.0936 N   0  0  0  0  0  0  0  0  0  0  0  0
    1.9715    0.2080    0.7608 C   0  0  0  0  0  0  0  0  0  0  0  0
    1.7405    0.3056    1.9829 O   0  0  0  0  0  0  0  0  0  0  0  0
    3.2781    0.5052    0.2062 C   0  0  0  0  0  0  0  0  0  0  0  0
    3.6332    0.4273   -1.1330 C   0  0  0  0  0  0  0  0  0  0  0  0
    4.9767    0.7912   -1.2666 C   0  0  0  0  0  0  0  0  0  0  0  0
    5.3483    1.0722    0.0468 C   0  0  0  0  0  0  0  0  0  0  0  0
    4.3314    0.8917    0.8590 O   0  0  0  0  0  0  0  0  0  0  0  0
   -0.6667   -1.9526    0.1244 C   0  0  0  0  0  0  0  0  0  0  0  0
   -0.0257   -2.9326   -0.6288 O   0  0  0  0  0  0  0  0  0  0  0  0
   -1.4315   -2.9656    0.3153 O   0  0  0  0  0  0  0  0  0  0  0  0
   -0.4075   -0.3625    1.5489 H   0  0  0  0  0  0  0  0  0  0  0  0
   -0.9972    1.4975    0.1626 H   0  0  0  0  0  0  0  0  0  0  0  0
   -1.3272    0.4282   -1.2498 H   0  0  0  0  0  0  0  0  0  0  0  0
   -2.8379    0.4723    1.4337 H   0  0  0  0  0  0  0  0  0  0  0  0
   -3.5893   -1.5646    0.8331 H   0  0  0  0  0  0  0  0  0  0  0  0
   -3.1158   -1.3886   -0.9325 H   0  0  0  0  0  0  0  0  0  0  0  0
   -4.5972   -0.6639   -0.2970 H   0  0  0  0  0  0  0  0  0  0  0  0
   -2.8653    2.4124   -0.2672 H   0  0  0  0  0  0  0  0  0  0  0  0
   -3.9274    1.3413   -1.2552 H   0  0  0  0  0  0  0  0  0  0  0  0
   -4.4115    1.7502    0.4387 H   0  0  0  0  0  0  0  0  0  0  0  0
    1.0382   -0.3098   -1.1297 H   0  0  0  0  0  0  0  0  0  0  0  0
    3.0344    0.1431   -1.9868 H   0  0  0  0  0  0  0  0  0  0  0  0
    5.6110    0.8536   -2.1497 H   0  0  0  0  0  0  0  0  0  0  0  0
    6.3151    1.3900    0.3694 H   0  0  0  0  0  0  0  0  0  0  0  0
   -0.2578   -3.0831   -1.6236 H   0  0  0  0  0  0  0  0  0  0  0  0
  1  2  1  0
  2  3  1  0
  3  4  1  0
  3  5  1  0
  1  6  1  0
  6  7  1  0
  7  8  2  0
  7  9  1  0
  9 10  2  0
 10 11  1  0
 11 12  2  0
 12 13  1  0
  1 14  1  0
 14 15  1  0
 14 16  2  0
 13  9  1  0
  1 17  1  1
  2 18  1  0
  2 19  1  0
  3 20  1  0
  4 21  1  0
  4 22  1  0
  4 23  1  0
  5 24  1  0
  5 25  1  0
  5 26  1  0
  6 27  1  0
 10 28  1  0
 11 29  1  0
 12 30  1  0
 15 31  1  0
M  END
$$$$
