
     RDKit          3D

 37 40  0  0  0  0  0  0  0  0999 V2000
   -3.8022   -2.7483   -0.1772 O   0  0  0  0  0  0  0  0  0  0  0  0
   -3.5635   -2.2238    0.9347 C   0  0  0  0  0  0  0  0  0  0  0  0
   -2.9820   -2.9990    1.9222 O   0  0  0  0  0  0  0  0  0  0  0  0
   -3.9007   -0.8117    1.1693 C   0  0  0  0  0  0  0  0  0  0  0  0
   -2.7979    0.0393    0.8183 N   0  0  0  0  0  0  0  0  0  0  0  0
   -1.8174    0.4213    1.6448 C   0  0  0  0  0  0  0  0  0  0  0  0
   -0.9196    1.2383    0.9770 C   0  0  0  0  0  0  0  0  0  0  0  0
    0.2934    1.8375    1.5392 C   0  0  0  0  0  0  0  0  0  0  0  0
    1.5094    1.0309    1.1401 C   0  0  0  0  0  0  0  0  0  0  0  0
    2.1215    0.0786    1.4364 N   0  0  0  0  0  0  0  0  0  0  0  0
    3.2149   -0.4256    0.9079 C   0  0  0  0  0  0  0  0  0  0  0  0
    3.9510   -1.5693    1.2637 C   0  0  0  0  0  0  0  0  0  0  0  0
    3.5877   -2.3721    2.2972 F   0  0  0  0  0  0  0  0  0  0  0  0
    5.0734   -1.9081    0.5639 C   0  0  0  0  0  0  0  0  0  0  0  0
    5.7795   -3.0339    0.9300 F   0  0  0  0  0  0  0  0  0  0  0  0
    5.5765   -1.2144   -0.4974 C   0  0  0  0  0  0  0  0  0  0  0  0
    4.8562   -0.0750   -0.8634 C   0  0  0  0  0  0  0  0  0  0  0  0
    5.2709    0.6790   -1.8990 F   0  0  0  0  0  0  0  0  0  0  0  0
    3.7213    0.2725   -0.1601 C   0  0  0  0  0  0  0  0  0  0  0  0
    2.5559    1.6292   -0.3212 S   0  0  0  0  0  0  0  0  0  0  0  0
   -1.3758    1.3579   -0.3112 C   0  0  0  0  0  0  0  0  0  0  0  0
   -0.8966    2.0426   -1.4026 C   0  0  0  0  0  0  0  0  0  0  0  0
   -1.6222    1.9538   -2.5869 C   0  0  0  0  0  0  0  0  0  0  0  0
   -1.1268    2.6394   -3.6514 F   0  0  0  0  0  0  0  0  0  0  0  0
   -2.7789    1.2083   -2.6668 C   0  0  0  0  0  0  0  0  0  0  0  0
   -3.2311    0.5324   -1.5453 C   0  0  0  0  0  0  0  0  0  0  0  0
   -2.5461    0.5939   -0.3597 C   0  0  0  0  0  0  0  0  0  0  0  0
   -3.0554   -4.0083    1.8919 H   0  0  0  0  0  0  0  0  0  0  0  0
   -4.8246   -0.5067    0.6178 H   0  0  0  0  0  0  0  0  0  0  0  0
   -4.1678   -0.7104    2.2496 H   0  0  0  0  0  0  0  0  0  0  0  0
   -1.7513    0.1258    2.6800 H   0  0  0  0  0  0  0  0  0  0  0  0
    0.2316    1.8388    2.6427 H   0  0  0  0  0  0  0  0  0  0  0  0
    0.4173    2.8955    1.2193 H   0  0  0  0  0  0  0  0  0  0  0  0
    6.4613   -1.5413   -0.9960 H   0  0  0  0  0  0  0  0  0  0  0  0
    0.0066    2.6463   -1.3768 H   0  0  0  0  0  0  0  0  0  0  0  0
   -3.3237    1.1533   -3.5921 H   0  0  0  0  0  0  0  0  0  0  0  0
   -4.1448   -0.0667   -1.5776 H   0  0  0  0  0  0  0  0  0  0  0  0
  1  2  2  0
  2  3  1  0
  2  4  1  0
  4  5  1  0
  5  6  1  0
  6  7  2  0
  7  8  1  0
  8  9  1  0
  9 10  2  0
 10 11  1  0
 11 12  2  0
 12 13  1  0
 12 14  1  0
 14 15  1  0
 14 16  2  0
 16 17  1  0
 17 18  1  0
 17 19  2  0
 19 20  1  0
  7 21  1  0
 21 22  2  0
 22 23  1  0
 23 24  1  0
 23 25  2  0
 25 26  1  0
 26 27  2  0
 27  5  1  0
 20  9  1  0
 27 21  1  0
 19 11  1  0
  3 28  1  0
  4 29  1  0
  4 30  1  0
  6 31  1  0
  8 32  1  0
  8 33  1  0
 16 34  1  0
 22 35  1  0
 25 36  1  0
 26 37  1  0
M  END
$$$$
