
     RDKit          3D

 50 52  0  0  0  0  0  0  0  0999 V2000
   -0.1602    2.3324   -0.5672 C   0  0  2  0  0  0  0  0  0  0  0  0
   -1.3513    2.3581   -1.4994 C   0  0  0  0  0  0  0  0  0  0  0  0
   -2.2890    1.2405   -1.2696 C   0  0  0  0  0  0  0  0  0  0  0  0
   -1.8078    0.0624   -0.7549 C   0  0  0  0  0  0  0  0  0  0  0  0
   -0.3983   -0.1832   -0.4051 C   0  0  0  0  0  0  0  0  0  0  0  0
    0.4066    1.0037   -0.4270 N   0  0  0  0  0  0  0  0  0  0  0  0
    1.8052    0.9223   -0.3109 C   0  0  0  0  0  0  0  0  0  0  0  0
    2.5894    1.9060   -0.3198 O   0  0  0  0  0  0  0  0  0  0  0  0
    2.5244   -0.2619   -0.1690 O   0  0  0  0  0  0  0  0  0  0  0  0
    3.9288   -0.1029   -0.0698 C   0  0  0  0  0  0  0  0  0  0  0  0
    4.6316   -1.3773    0.0773 C   0  0  0  0  0  0  0  0  0  0  0  0
    5.0783   -2.1053   -1.0055 C   0  0  0  0  0  0  0  0  0  0  0  0
    5.7453   -3.3103   -0.9291 C   0  0  0  0  0  0  0  0  0  0  0  0
    5.9925   -3.8433    0.3334 C   0  0  0  0  0  0  0  0  0  0  0  0
    5.5506   -3.1263    1.4497 C   0  0  0  0  0  0  0  0  0  0  0  0
    4.8851   -1.9199    1.3157 C   0  0  0  0  0  0  0  0  0  0  0  0
   -2.7234   -0.9506   -0.5588 C   0  0  0  0  0  0  0  0  0  0  0  0
   -4.0531   -0.7612   -0.8736 C   0  0  0  0  0  0  0  0  0  0  0  0
   -5.0903   -1.7462   -0.7101 N   0  0  0  0  0  0  0  0  0  0  0  0
   -5.1393   -2.6409    0.7648 S   0  0  0  0  0  0  0  0  0  0  0  0
   -3.7296   -3.5277    0.9501 O   0  0  0  0  0  0  0  0  0  0  0  0
   -5.2598   -1.7272    1.9664 O   0  0  0  0  0  0  0  0  0  0  0  0
   -6.3262   -3.5502    0.7162 O   0  0  0  0  0  0  0  0  0  0  0  0
   -4.5314    0.4340   -1.3939 C   0  0  0  0  0  0  0  0  0  0  0  0
   -3.6144    1.4546   -1.5926 C   0  0  0  0  0  0  0  0  0  0  0  0
   -0.5132    2.8741    0.7928 C   0  0  0  0  0  0  0  0  0  0  0  0
   -0.2154    2.0144    1.6860 O   0  0  0  0  0  0  0  0  0  0  0  0
   -1.0801    4.1482    0.9311 N   0  0  0  0  0  0  0  0  0  0  0  0
   -1.3474    4.4887    2.3145 C   0  0  0  0  0  0  0  0  0  0  0  0
    0.5808    3.0388   -1.0337 H   0  0  0  0  0  0  0  0  0  0  0  0
   -1.8113    3.3428   -1.4331 H   0  0  0  0  0  0  0  0  0  0  0  0
   -0.9306    2.2019   -2.5275 H   0  0  0  0  0  0  0  0  0  0  0  0
   -0.0217   -0.9766   -1.1150 H   0  0  0  0  0  0  0  0  0  0  0  0
   -0.4122   -0.7060    0.5851 H   0  0  0  0  0  0  0  0  0  0  0  0
    4.0854    0.4659    0.8911 H   0  0  0  0  0  0  0  0  0  0  0  0
    4.2758    0.4751   -0.9375 H   0  0  0  0  0  0  0  0  0  0  0  0
    4.8794   -1.6787   -1.9904 H   0  0  0  0  0  0  0  0  0  0  0  0
    6.0755   -3.8424   -1.8153 H   0  0  0  0  0  0  0  0  0  0  0  0
    6.5073   -4.7785    0.4658 H   0  0  0  0  0  0  0  0  0  0  0  0
    5.7608   -3.5712    2.4030 H   0  0  0  0  0  0  0  0  0  0  0  0
    4.5734   -1.4211    2.2007 H   0  0  0  0  0  0  0  0  0  0  0  0
   -2.4463   -1.9164   -0.1587 H   0  0  0  0  0  0  0  0  0  0  0  0
   -5.7840   -1.8995   -1.4752 H   0  0  0  0  0  0  0  0  0  0  0  0
   -3.9493   -4.4802    1.1048 H   0  0  0  0  0  0  0  0  0  0  0  0
   -5.5616    0.6298   -1.6556 H   0  0  0  0  0  0  0  0  0  0  0  0
   -3.9693    2.4115   -2.0039 H   0  0  0  0  0  0  0  0  0  0  0  0
   -1.2370    4.6817    0.0531 H   0  0  0  0  0  0  0  0  0  0  0  0
   -0.4296    4.2722    2.9192 H   0  0  0  0  0  0  0  0  0  0  0  0
   -1.4384    5.6052    2.3600 H   0  0  0  0  0  0  0  0  0  0  0  0
   -2.2547    4.0407    2.7214 H   0  0  0  0  0  0  0  0  0  0  0  0
  1  2  1  0
  2  3  1  0
  3  4  2  0
  4  5  1  0
  5  6  1  0
  6  7  1  0
  7  8  2  0
  7  9  1  0
  9 10  1  0
 10 11  1  0
 11 12  2  0
 12 13  1  0
 13 14  2  0
 14 15  1  0
 15 16  2  0
  4 17  1  0
 17 18  2  0
 18 19  1  0
 19 20  1  0
 20 21  1  0
 20 22  2  0
 20 23  2  0
 18 24  1  0
 24 25  2  0
  1 26  1  0
 26 27  2  0
 26 28  1  0
 28 29  1  0
  6  1  1  0
 16 11  1  0
 25  3  1  0
  1 30  1  6
  2 31  1  0
  2 32  1  0
  5 33  1  0
  5 34  1  0
 10 35  1  0
 10 36  1  0
 12 37  1  0
 13 38  1  0
 14 39  1  0
 15 40  1  0
 16 41  1  0
 17 42  1  0
 19 43  1  0
 21 44  1  0
 24 45  1  0
 25 46  1  0
 28 47  1  0
 29 48  1  0
 29 49  1  0
 29 50  1  0
M  END
$$$$
