
     RDKit          3D

 34 36  0  0  0  0  0  0  0  0999 V2000
   -3.5600   -0.8920    1.1560 C   0  0  0  0  0  0  0  0  0  0  0  0
   -2.5960   -0.3689    0.4740 C   0  0  0  0  0  0  0  0  0  0  0  0
   -2.7988    0.2998   -0.7991 C   0  0  0  0  0  0  0  0  0  0  0  0
   -4.0623    1.0524   -0.9889 C   0  0  0  0  0  0  0  0  0  0  0  0
   -1.8336    0.1901   -1.7204 C   0  0  0  0  0  0  0  0  0  0  0  0
   -2.0778    0.8837   -2.9883 C   0  0  0  0  0  0  0  0  0  0  0  0
   -1.2053    0.7777   -3.8914 O   0  0  0  0  0  0  0  0  0  0  0  0
   -3.1804    1.6282   -3.2338 O   0  0  0  0  0  1  0  0  0  0  0  0
   -0.6299   -0.5325   -1.5303 N   0  0  0  0  0  0  0  0  0  0  0  0
    0.5116   -1.0914   -2.1320 C   0  0  0  0  0  0  0  0  0  0  0  0
    0.8685   -1.6590   -3.2087 O   0  0  0  0  0  0  0  0  0  0  0  0
    1.1922   -0.7023   -0.8578 C   0  0  0  0  0  0  0  0  0  0  0  0
    2.4566   -0.3099   -0.7625 C   0  0  0  0  0  0  0  0  0  0  0  0
    2.9661    0.0380    0.5336 C   0  0  0  0  0  0  0  0  0  0  0  0
    4.1673   -0.4694    0.9729 C   0  0  0  0  0  0  0  0  0  0  0  0
    4.6805   -0.1005    2.2257 C   0  0  0  0  0  0  0  0  0  0  0  0
    3.9444    0.7757    2.9827 C   0  0  0  0  0  0  0  0  0  0  0  0
    2.7394    1.2817    2.5387 C   0  0  0  0  0  0  0  0  0  0  0  0
    2.3125    0.8772    1.3189 N   0  0  0  0  0  0  0  0  0  0  0  0
   -0.0603   -1.0263   -0.2912 C   0  0  1  0  0  0  0  0  0  0  0  0
   -0.8878   -0.4476    1.0611 S   0  0  0  0  0  6  0  0  0  0  0  0
   -0.9242   -1.4874    2.1732 O   0  0  0  0  0  0  0  0  0  0  0  0
   -0.6381    0.8559    1.6497 O   0  0  0  0  0  0  0  0  0  0  0  0
   -4.5843   -0.8865    0.8539 H   0  0  0  0  0  0  0  0  0  0  0  0
   -3.3136   -1.3648    2.1066 H   0  0  0  0  0  0  0  0  0  0  0  0
   -4.6017    0.6603   -1.8730 H   0  0  0  0  0  0  0  0  0  0  0  0
   -3.9197    2.1421   -1.1256 H   0  0  0  0  0  0  0  0  0  0  0  0
   -4.7600    0.8539   -0.1318 H   0  0  0  0  0  0  0  0  0  0  0  0
    3.1265   -0.2406   -1.6274 H   0  0  0  0  0  0  0  0  0  0  0  0
    4.7756   -1.1526    0.4042 H   0  0  0  0  0  0  0  0  0  0  0  0
    5.6267   -0.4791    2.6056 H   0  0  0  0  0  0  0  0  0  0  0  0
    4.3075    1.0976    3.9766 H   0  0  0  0  0  0  0  0  0  0  0  0
    2.1579    1.9772    3.1422 H   0  0  0  0  0  0  0  0  0  0  0  0
   -0.1996   -2.1808   -0.3681 H   0  0  0  0  0  0  0  0  0  0  0  0
  1  2  2  3
  2  3  1  0
  3  4  1  0
  3  5  2  0
  5  6  1  0
  6  7  2  0
  6  8  1  0
  5  9  1  0
  9 10  1  0
 10 11  2  0
 10 12  1  0
 12 13  2  0
 13 14  1  0
 14 15  2  0
 15 16  1  0
 16 17  2  0
 17 18  1  0
 18 19  2  0
 12 20  1  0
 20 21  1  0
 21 22  2  0
 21 23  2  0
 21  2  1  0
 20  9  1  0
 19 14  1  0
  1 24  1  0
  1 25  1  0
  4 26  1  0
  4 27  1  0
  4 28  1  0
 13 29  1  0
 15 30  1  0
 16 31  1  0
 17 32  1  0
 18 33  1  0
 20 34  1  6
M  CHG  1   8  -1
M  END
$$$$
