
     RDKit          3D

 51 55  0  0  0  0  0  0  0  0999 V2000
   -3.7159   -3.5126    0.0763 N   0  0  0  0  0  0  0  0  0  0  0  0
   -2.4123   -3.0579    0.2676 C   0  0  0  0  0  0  0  0  0  0  0  0
   -1.4711   -3.9817    0.6336 N   0  0  0  0  0  0  0  0  0  0  0  0
   -0.2239   -3.6642    0.9279 C   0  0  0  0  0  0  0  0  0  0  0  0
    0.1136   -2.3764    0.8597 N   0  0  0  0  0  0  0  0  0  0  0  0
   -0.7562   -1.4499    0.5113 N   0  0  0  0  0  0  0  0  0  0  0  0
   -0.5663   -0.1293    0.4376 C   0  0  0  0  0  0  0  0  0  0  0  0
    0.6789    0.5831    0.7024 C   0  0  0  0  0  0  0  0  0  0  0  0
    0.7232    1.7380    1.4646 C   0  0  0  0  0  0  0  0  0  0  0  0
    1.9113    2.3878    1.6968 C   0  0  0  0  0  0  0  0  0  0  0  0
    3.1083    1.9322    1.1907 C   0  0  0  0  0  0  0  0  0  0  0  0
    3.0852    0.7835    0.4291 C   0  0  0  0  0  0  0  0  0  0  0  0
    4.3054    0.3068   -0.0949 N   0  0  0  0  0  0  0  0  0  0  0  0
    5.1117   -0.6203    0.6526 C   0  0  0  0  0  0  0  0  0  0  0  0
    6.5338   -0.5238    0.1017 C   0  0  0  0  0  0  0  0  0  0  0  0
    6.4859   -0.8592   -1.2488 O   0  0  0  0  0  0  0  0  0  0  0  0
    5.9833    0.1986   -2.0010 C   0  0  0  0  0  0  0  0  0  0  0  0
    4.7320    0.7492   -1.3660 C   0  0  0  0  0  0  0  0  0  0  0  0
    4.1174    1.6157   -2.0520 O   0  0  0  0  0  0  0  0  0  0  0  0
    1.8743    0.1283    0.1972 C   0  0  0  0  0  0  0  0  0  0  0  0
   -1.7638    0.4271    0.0653 C   0  0  0  0  0  0  0  0  0  0  0  0
   -2.7426   -0.5574   -0.1044 C   0  0  0  0  0  0  0  0  0  0  0  0
   -4.1497   -0.3218   -0.3991 C   0  0  0  0  0  0  0  0  0  0  0  0
   -5.1712   -1.1617   -0.7371 C   0  0  0  0  0  0  0  0  0  0  0  0
   -6.4051   -0.4864   -0.7196 C   0  0  0  0  0  0  0  0  0  0  0  0
   -6.0973    0.7321   -0.3791 N   0  0  0  0  0  0  0  0  0  0  0  0
   -4.7679    0.8792   -0.1793 N   0  0  0  0  0  0  0  0  0  0  0  0
   -4.1958    2.1538    0.1786 C   0  0  0  0  0  0  0  0  0  0  0  0
   -3.9319    3.0430   -1.0252 C   0  0  0  0  0  0  0  0  0  0  0  0
   -3.3679    4.2133   -0.5572 F   0  0  0  0  0  0  0  0  0  0  0  0
   -3.1975    2.4823   -2.0143 F   0  0  0  0  0  0  0  0  0  0  0  0
   -5.1608    3.4051   -1.6067 F   0  0  0  0  0  0  0  0  0  0  0  0
   -2.0761   -1.7334    0.1897 C   0  0  0  0  0  0  0  0  0  0  0  0
   -4.4305   -3.3539    0.8120 H   0  0  0  0  0  0  0  0  0  0  0  0
   -3.9952   -4.0432   -0.7763 H   0  0  0  0  0  0  0  0  0  0  0  0
    0.5249   -4.4289    1.2220 H   0  0  0  0  0  0  0  0  0  0  0  0
   -0.1782    2.1481    1.8904 H   0  0  0  0  0  0  0  0  0  0  0  0
    1.9106    3.2997    2.3047 H   0  0  0  0  0  0  0  0  0  0  0  0
    4.0533    2.4307    1.3632 H   0  0  0  0  0  0  0  0  0  0  0  0
    4.7078   -1.6353    0.4690 H   0  0  0  0  0  0  0  0  0  0  0  0
    5.1726   -0.4013    1.7279 H   0  0  0  0  0  0  0  0  0  0  0  0
    6.8575    0.5409    0.2249 H   0  0  0  0  0  0  0  0  0  0  0  0
    7.2395   -1.1556    0.6605 H   0  0  0  0  0  0  0  0  0  0  0  0
    6.7474    1.0015   -2.1067 H   0  0  0  0  0  0  0  0  0  0  0  0
    5.7776   -0.1748   -3.0288 H   0  0  0  0  0  0  0  0  0  0  0  0
    1.9428   -0.7725   -0.4148 H   0  0  0  0  0  0  0  0  0  0  0  0
   -1.8658    1.4682   -0.0860 H   0  0  0  0  0  0  0  0  0  0  0  0
   -5.1266   -2.1874   -1.0654 H   0  0  0  0  0  0  0  0  0  0  0  0
   -7.3476   -0.9695   -0.9543 H   0  0  0  0  0  0  0  0  0  0  0  0
   -3.4841    2.1816    0.9816 H   0  0  0  0  0  0  0  0  0  0  0  0
   -5.0969    2.7285    0.6781 H   0  0  0  0  0  0  0  0  0  0  0  0
  1  2  1  0
  2  3  2  0
  3  4  1  0
  4  5  2  0
  5  6  1  0
  6  7  1  0
  7  8  1  0
  8  9  2  0
  9 10  1  0
 10 11  2  0
 11 12  1  0
 12 13  1  0
 13 14  1  0
 14 15  1  0
 15 16  1  0
 16 17  1  0
 17 18  1  0
 18 19  2  0
 12 20  2  0
  7 21  2  0
 21 22  1  0
 22 23  1  0
 23 24  2  0
 24 25  1  0
 25 26  2  0
 26 27  1  0
 27 28  1  0
 28 29  1  0
 29 30  1  0
 29 31  1  0
 29 32  1  0
 22 33  2  0
 33  2  1  0
 33  6  1  0
 20  8  1  0
 27 23  1  0
 18 13  1  0
  1 34  1  0
  1 35  1  0
  4 36  1  0
  9 37  1  0
 10 38  1  0
 11 39  1  0
 14 40  1  0
 14 41  1  0
 15 42  1  0
 15 43  1  0
 17 44  1  0
 17 45  1  0
 20 46  1  0
 21 47  1  0
 24 48  1  0
 25 49  1  0
 28 50  1  0
 28 51  1  0
M  END
$$$$
