
     RDKit          3D

 63 66  0  0  0  0  0  0  0  0999 V2000
    7.9278   -0.8653    1.4768 C   0  0  0  0  0  0  0  0  0  0  0  0
    8.2553    0.3468    0.7839 N   0  0  0  0  0  0  0  0  0  0  0  0
    9.5950    0.8049    0.9876 C   0  0  0  0  0  0  0  0  0  0  0  0
    7.8291    0.2778   -0.8887 S   0  0  0  0  0  6  0  0  0  0  0  0
    8.3496    1.4916   -1.6029 O   0  0  0  0  0  0  0  0  0  0  0  0
    8.5928   -0.9051   -1.4688 O   0  0  0  0  0  0  0  0  0  0  0  0
    6.1175    0.0589   -1.1043 C   0  0  0  0  0  0  0  0  0  0  0  0
    5.5683   -1.1997   -1.1807 C   0  0  0  0  0  0  0  0  0  0  0  0
    4.2194   -1.4166   -1.3510 C   0  0  0  0  0  0  0  0  0  0  0  0
    3.3499   -0.3520   -1.4535 C   0  0  0  0  0  0  0  0  0  0  0  0
    1.9399   -0.5585   -1.6316 N   0  0  0  0  0  0  0  0  0  0  0  0
    1.0242   -0.0603   -0.6722 C   0  0  0  0  0  0  0  0  0  0  0  0
   -0.3350   -0.2693   -0.8626 C   0  0  0  0  0  0  0  0  0  0  0  0
   -1.2583    0.1987    0.0465 C   0  0  0  0  0  0  0  0  0  0  0  0
   -0.7563    0.8686    1.1255 C   0  0  0  0  0  0  0  0  0  0  0  0
    0.6186    1.0782    1.3148 C   0  0  0  0  0  0  0  0  0  0  0  0
    1.4585    0.5969    0.3935 N   0  0  0  0  0  0  0  0  0  0  0  0
   -1.8009    1.2409    1.8859 C   0  0  0  0  0  0  0  0  0  0  0  0
   -2.9747    0.7795    1.2427 C   0  0  0  0  0  0  0  0  0  0  0  0
   -4.2593    1.0531    1.8615 C   0  0  0  0  0  0  0  0  0  0  0  0
   -5.5129    0.7497    1.4717 C   0  0  0  0  0  0  0  0  0  0  0  0
   -6.3850    1.2249    2.4247 N   0  0  0  0  0  0  0  0  0  0  0  0
   -5.7497    1.8063    3.3841 N   0  0  0  0  0  0  0  0  0  0  0  0
   -6.3019    2.4344    4.5713 C   0  0  0  0  0  0  0  0  0  0  0  0
   -4.4478    1.7269    3.0849 C   0  0  0  0  0  0  0  0  0  0  0  0
   -2.6311    0.1578    0.1446 N   0  0  0  0  0  0  0  0  0  0  0  0
   -3.3928   -0.4950   -0.8231 C   0  0  0  0  0  0  0  0  0  0  0  0
   -2.8018   -1.0235   -1.8579 O   0  0  0  0  0  0  0  0  0  0  0  0
   -4.7376   -0.7036   -0.8995 O   0  0  0  0  0  0  0  0  0  0  0  0
   -5.3718   -1.3799   -1.9308 C   0  0  0  0  0  0  0  0  0  0  0  0
   -6.8721   -1.3809   -1.6172 C   0  0  0  0  0  0  0  0  0  0  0  0
   -5.2080   -0.7220   -3.2788 C   0  0  0  0  0  0  0  0  0  0  0  0
   -4.9683   -2.8348   -2.0383 C   0  0  0  0  0  0  0  0  0  0  0  0
    3.8808    0.9193   -1.3793 C   0  0  0  0  0  0  0  0  0  0  0  0
    2.8025    2.3092   -1.5062 Cl  0  0  0  0  0  0  0  0  0  0  0  0
    5.2447    1.1177   -1.2072 C   0  0  0  0  0  0  0  0  0  0  0  0
    8.6803   -1.0064    2.2772 H   0  0  0  0  0  0  0  0  0  0  0  0
    6.9404   -0.8074    1.9875 H   0  0  0  0  0  0  0  0  0  0  0  0
    8.0192   -1.7094    0.7826 H   0  0  0  0  0  0  0  0  0  0  0  0
    9.9581    0.4454    1.9932 H   0  0  0  0  0  0  0  0  0  0  0  0
   10.2613    0.2850    0.2396 H   0  0  0  0  0  0  0  0  0  0  0  0
    9.7164    1.8886    0.8579 H   0  0  0  0  0  0  0  0  0  0  0  0
    6.2489   -2.0368   -1.1004 H   0  0  0  0  0  0  0  0  0  0  0  0
    3.8715   -2.4365   -1.4008 H   0  0  0  0  0  0  0  0  0  0  0  0
    1.6378   -1.0755   -2.4738 H   0  0  0  0  0  0  0  0  0  0  0  0
   -0.6489   -0.8101   -1.7444 H   0  0  0  0  0  0  0  0  0  0  0  0
    0.9720    1.6046    2.1678 H   0  0  0  0  0  0  0  0  0  0  0  0
   -1.7395    1.7799    2.7954 H   0  0  0  0  0  0  0  0  0  0  0  0
   -5.9282    0.2570    0.6300 H   0  0  0  0  0  0  0  0  0  0  0  0
   -6.9998    3.2265    4.2775 H   0  0  0  0  0  0  0  0  0  0  0  0
   -6.7689    1.6441    5.1946 H   0  0  0  0  0  0  0  0  0  0  0  0
   -5.4809    2.8641    5.2029 H   0  0  0  0  0  0  0  0  0  0  0  0
   -3.6481    2.1229    3.6939 H   0  0  0  0  0  0  0  0  0  0  0  0
   -7.1496   -0.3146   -1.5045 H   0  0  0  0  0  0  0  0  0  0  0  0
   -7.4301   -1.9079   -2.3968 H   0  0  0  0  0  0  0  0  0  0  0  0
   -6.9674   -1.8418   -0.6136 H   0  0  0  0  0  0  0  0  0  0  0  0
   -6.1696   -0.5810   -3.8128 H   0  0  0  0  0  0  0  0  0  0  0  0
   -4.5930   -1.3880   -3.9469 H   0  0  0  0  0  0  0  0  0  0  0  0
   -4.7283    0.2760   -3.2182 H   0  0  0  0  0  0  0  0  0  0  0  0
   -3.9686   -3.0358   -1.6161 H   0  0  0  0  0  0  0  0  0  0  0  0
   -5.0332   -3.1492   -3.1005 H   0  0  0  0  0  0  0  0  0  0  0  0
   -5.6720   -3.5037   -1.4618 H   0  0  0  0  0  0  0  0  0  0  0  0
    5.6115    2.1346   -1.1550 H   0  0  0  0  0  0  0  0  0  0  0  0
  1  2  1  0
  2  3  1  0
  2  4  1  0
  4  5  2  0
  4  6  2  0
  4  7  1  0
  7  8  2  0
  8  9  1  0
  9 10  2  0
 10 11  1  0
 11 12  1  0
 12 13  2  0
 13 14  1  0
 14 15  2  0
 15 16  1  0
 16 17  2  0
 15 18  1  0
 18 19  2  0
 19 20  1  0
 20 21  1  0
 21 22  2  0
 22 23  1  0
 23 24  1  0
 23 25  1  0
 19 26  1  0
 26 27  1  0
 27 28  2  0
 27 29  1  0
 29 30  1  0
 30 31  1  0
 30 32  1  0
 30 33  1  0
 10 34  1  0
 34 35  1  0
 34 36  2  0
 36  7  1  0
 17 12  1  0
 25 20  2  0
 26 14  1  0
  1 37  1  0
  1 38  1  0
  1 39  1  0
  3 40  1  0
  3 41  1  0
  3 42  1  0
  8 43  1  0
  9 44  1  0
 11 45  1  0
 13 46  1  0
 16 47  1  0
 18 48  1  0
 21 49  1  0
 24 50  1  0
 24 51  1  0
 24 52  1  0
 25 53  1  0
 31 54  1  0
 31 55  1  0
 31 56  1  0
 32 57  1  0
 32 58  1  0
 32 59  1  0
 33 60  1  0
 33 61  1  0
 33 62  1  0
 36 63  1  0
M  END
$$$$
