
     RDKit          3D

 55 59  0  0  0  0  0  0  0  0999 V2000
   -1.5455    0.9207   -0.5687 O   0  0  0  0  0  0  0  0  0  0  0  0
   -1.2789   -0.2971   -0.5641 C   0  0  0  0  0  0  0  0  0  0  0  0
    0.0799   -0.6610   -0.5131 N   0  0  0  0  0  0  0  0  0  0  0  0
    1.1689    0.2400   -0.4576 C   0  0  0  0  0  0  0  0  0  0  0  0
    1.0678    1.5944   -0.4341 C   0  0  0  0  0  0  0  0  0  0  0  0
    2.2023    2.4146   -0.3811 C   0  0  0  0  0  0  0  0  0  0  0  0
    3.4635    1.8757   -0.3509 C   0  0  0  0  0  0  0  0  0  0  0  0
    3.5992    0.5054   -0.3730 C   0  0  0  0  0  0  0  0  0  0  0  0
    4.9395   -0.0627   -0.3261 C   0  0  0  0  0  0  0  0  0  0  0  0
    5.2758   -0.9200   -1.3823 C   0  0  0  0  0  0  0  0  0  0  0  0
    6.4896   -1.4692   -1.4575 N   0  0  0  0  0  0  0  0  0  0  0  0
    7.4319   -1.2360   -0.5468 C   0  0  0  0  0  0  0  0  0  0  0  0
    7.1365   -0.3996    0.5049 C   0  0  0  0  0  0  0  0  0  0  0  0
    8.0861   -0.1364    1.4818 C   0  0  0  0  0  0  0  0  0  0  0  0
    7.7885    0.6917    2.5387 C   0  0  0  0  0  0  0  0  0  0  0  0
    6.5438    1.2544    2.6176 C   0  0  0  0  0  0  0  0  0  0  0  0
    5.5541    1.0233    1.6636 C   0  0  0  0  0  0  0  0  0  0  0  0
    5.8785    0.1922    0.6166 C   0  0  0  0  0  0  0  0  0  0  0  0
    2.4769   -0.2808   -0.4252 C   0  0  0  0  0  0  0  0  0  0  0  0
   -2.3014   -1.3423   -0.6121 C   0  0  0  0  0  0  0  0  0  0  0  0
   -1.9799   -2.6396   -0.2817 C   0  0  0  0  0  0  0  0  0  0  0  0
   -2.8906   -3.6817   -0.2309 C   0  0  0  0  0  0  0  0  0  0  0  0
   -4.2037   -3.4444   -0.5216 C   0  0  0  0  0  0  0  0  0  0  0  0
   -4.5641   -2.1620   -0.8570 C   0  0  0  0  0  0  0  0  0  0  0  0
   -3.6370   -1.1066   -0.9078 C   0  0  0  0  0  0  0  0  0  0  0  0
   -4.0735    0.1566   -1.3443 N   0  0  0  0  0  0  0  0  0  0  0  0
   -5.4365    0.5506   -1.6289 C   0  0  0  0  0  0  0  0  0  0  0  0
   -6.2379    0.9273   -0.4670 C   0  0  0  0  0  0  0  0  0  0  0  0
   -6.0386    2.2550   -0.0304 C   0  0  0  0  0  0  0  0  0  0  0  0
   -6.7677    2.7002    1.0429 C   0  0  0  0  0  0  0  0  0  0  0  0
   -7.6476    1.8972    1.6633 N   0  0  0  0  0  0  0  0  0  0  0  0
   -7.8371    0.6353    1.2478 C   0  0  0  0  0  0  0  0  0  0  0  0
   -7.1279    0.1157    0.1597 C   0  0  0  0  0  0  0  0  0  0  0  0
    0.3418   -1.7107   -0.5320 H   0  0  0  0  0  0  0  0  0  0  0  0
    0.1345    2.1184   -0.4530 H   0  0  0  0  0  0  0  0  0  0  0  0
    2.1113    3.4772   -0.3630 H   0  0  0  0  0  0  0  0  0  0  0  0
    4.3623    2.5089   -0.3202 H   0  0  0  0  0  0  0  0  0  0  0  0
    4.5510   -1.1477   -2.1536 H   0  0  0  0  0  0  0  0  0  0  0  0
    8.4142   -1.6750   -0.6005 H   0  0  0  0  0  0  0  0  0  0  0  0
    9.0622   -0.5880    1.4051 H   0  0  0  0  0  0  0  0  0  0  0  0
    8.5700    0.8681    3.2821 H   0  0  0  0  0  0  0  0  0  0  0  0
    6.2790    1.9074    3.4332 H   0  0  0  0  0  0  0  0  0  0  0  0
    4.5820    1.4773    1.7691 H   0  0  0  0  0  0  0  0  0  0  0  0
    2.6073   -1.3449   -0.4419 H   0  0  0  0  0  0  0  0  0  0  0  0
   -0.9426   -2.8643   -0.0294 H   0  0  0  0  0  0  0  0  0  0  0  0
   -2.5510   -4.6776    0.0397 H   0  0  0  0  0  0  0  0  0  0  0  0
   -4.9629   -4.2348   -0.4949 H   0  0  0  0  0  0  0  0  0  0  0  0
   -5.5952   -1.9791   -1.1091 H   0  0  0  0  0  0  0  0  0  0  0  0
   -3.3424    0.9038   -1.5071 H   0  0  0  0  0  0  0  0  0  0  0  0
   -5.4631    1.4022   -2.3575 H   0  0  0  0  0  0  0  0  0  0  0  0
   -5.9513   -0.2787   -2.1607 H   0  0  0  0  0  0  0  0  0  0  0  0
   -5.3480    2.9247   -0.4974 H   0  0  0  0  0  0  0  0  0  0  0  0
   -6.6446    3.7285    1.4176 H   0  0  0  0  0  0  0  0  0  0  0  0
   -8.5326   -0.0461    1.7146 H   0  0  0  0  0  0  0  0  0  0  0  0
   -7.2968   -0.8801   -0.1684 H   0  0  0  0  0  0  0  0  0  0  0  0
  1  2  2  0
  2  3  1  0
  3  4  1  0
  4  5  2  0
  5  6  1  0
  6  7  2  0
  7  8  1  0
  8  9  1  0
  9 10  2  0
 10 11  1  0
 11 12  2  0
 12 13  1  0
 13 14  2  0
 14 15  1  0
 15 16  2  0
 16 17  1  0
 17 18  2  0
  8 19  2  0
  2 20  1  0
 20 21  2  0
 21 22  1  0
 22 23  2  0
 23 24  1  0
 24 25  2  0
 25 26  1  0
 26 27  1  0
 27 28  1  0
 28 29  2  0
 29 30  1  0
 30 31  2  0
 31 32  1  0
 32 33  2  0
 19  4  1  0
 25 20  1  0
 33 28  1  0
 18  9  1  0
 18 13  1  0
  3 34  1  0
  5 35  1  0
  6 36  1  0
  7 37  1  0
 10 38  1  0
 12 39  1  0
 14 40  1  0
 15 41  1  0
 16 42  1  0
 17 43  1  0
 19 44  1  0
 21 45  1  0
 22 46  1  0
 23 47  1  0
 24 48  1  0
 26 49  1  0
 27 50  1  0
 27 51  1  0
 29 52  1  0
 30 53  1  0
 32 54  1  0
 33 55  1  0
M  END
$$$$
