
     RDKit          3D

 98103  0  0  0  0  0  0  0  0999 V2000
   -9.9257    5.0581    1.7724 C   0  0  0  0  0  0  0  0  0  0  0  0
   -9.7770    3.7968    1.1973 O   0  0  0  0  0  0  0  0  0  0  0  0
   -8.5894    3.2249    0.8221 C   0  0  0  0  0  0  0  0  0  0  0  0
   -7.3587    3.8324    0.9665 C   0  0  0  0  0  0  0  0  0  0  0  0
   -6.1859    3.2220    0.5754 C   0  0  0  0  0  0  0  0  0  0  0  0
   -6.2184    1.9560    0.0165 C   0  0  0  0  0  0  0  0  0  0  0  0
   -7.4602    1.3594   -0.1211 C   0  0  0  0  0  0  0  0  0  0  0  0
   -8.6394    1.9402    0.2566 C   0  0  0  0  0  0  0  0  0  0  0  0
   -9.6846    1.0779   -0.0215 O   0  0  0  0  0  0  0  0  0  0  0  0
   -9.1770   -0.1957   -0.2056 C   0  0  1  0  0  0  0  0  0  0  0  0
   -9.9921   -1.0733   -1.0996 C   0  0  0  0  0  0  0  0  0  0  0  0
   -9.2365   -1.7182   -2.2058 C   0  0  1  0  0  0  0  0  0  0  0  0
  -10.0908   -2.2209   -3.2067 O   0  0  0  0  0  0  0  0  0  0  0  0
   -8.3228   -0.7645   -2.8846 C   0  0  0  0  0  0  0  0  0  0  0  0
   -7.6242    0.0650   -2.1276 C   0  0  0  0  0  0  0  0  0  0  0  0
   -7.7731    0.0154   -0.6734 C   0  0  1  0  0  0  0  0  0  0  0  0
   -6.8514   -0.9681    0.0155 C   0  0  0  0  0  0  0  0  0  0  0  0
   -5.4574   -0.9012   -0.5706 C   0  0  0  0  0  0  0  0  0  0  0  0
   -4.6460    0.1002    0.0164 N   0  0  0  0  0  0  0  0  0  0  0  0
   -4.1295   -0.1516    1.3058 C   0  0  0  0  0  0  0  0  0  0  0  0
   -3.1050   -1.2541    1.3653 C   0  0  0  0  0  0  0  0  0  0  0  0
   -1.9014   -0.9626    0.5001 C   0  0  0  0  0  0  0  0  0  0  0  0
   -0.9266   -2.1110    0.6056 C   0  0  0  0  0  0  0  0  0  0  0  0
    0.3041   -1.9123   -0.2259 C   0  0  0  0  0  0  0  0  0  0  0  0
    1.1060   -0.7133    0.1177 C   0  0  0  0  0  0  0  0  0  0  0  0
    1.6215   -0.7085    1.5335 C   0  0  0  0  0  0  0  0  0  0  0  0
    2.5121   -1.8914    1.8231 C   0  0  0  0  0  0  0  0  0  0  0  0
    3.7377   -1.9453    0.9329 C   0  0  0  0  0  0  0  0  0  0  0  0
    4.5072   -3.1748    1.3496 C   0  0  0  0  0  0  0  0  0  0  0  0
    5.6530   -3.3805    0.6515 O   0  0  0  0  0  0  0  0  0  0  0  0
    6.7852   -2.6472    0.5976 C   0  0  0  0  0  0  0  0  0  0  0  0
    7.8164   -3.0910   -0.2640 C   0  0  0  0  0  0  0  0  0  0  0  0
    8.9793   -2.3814   -0.3469 C   0  0  0  0  0  0  0  0  0  0  0  0
    9.2074   -1.2286    0.3816 C   0  0  0  0  0  0  0  0  0  0  0  0
   10.4600   -0.4530    0.2984 C   0  0  0  0  0  0  0  0  0  0  0  0
   10.4104    0.5818   -0.7313 N   0  0  0  0  0  0  0  0  0  0  0  0
   11.7010    1.2466   -0.6936 C   0  0  0  0  0  0  0  0  0  0  0  0
   11.7485    2.4954   -1.5231 C   0  0  0  0  0  0  0  0  0  0  0  0
   10.6225    3.4233   -1.0519 C   0  0  0  0  0  0  0  0  0  0  0  0
    9.3326    2.6452   -1.3274 C   0  0  0  0  0  0  0  0  0  0  0  0
    9.3241    1.4769   -0.3925 C   0  0  0  0  0  0  0  0  0  0  0  0
    8.1937   -0.8093    1.2171 C   0  0  0  0  0  0  0  0  0  0  0  0
    6.9855   -1.5060    1.3335 C   0  0  0  0  0  0  0  0  0  0  0  0
   -4.8785    1.4442   -0.3594 C   0  0  0  0  0  0  0  0  0  0  0  0
  -10.9677    5.4107    1.5413 H   0  0  0  0  0  0  0  0  0  0  0  0
   -9.1620    5.7367    1.3255 H   0  0  0  0  0  0  0  0  0  0  0  0
   -9.8262    5.0743    2.8635 H   0  0  0  0  0  0  0  0  0  0  0  0
   -7.3102    4.8216    1.4009 H   0  0  0  0  0  0  0  0  0  0  0  0
   -5.2287    3.7055    0.6923 H   0  0  0  0  0  0  0  0  0  0  0  0
   -9.1207   -0.7077    0.8000 H   0  0  0  0  0  0  0  0  0  0  0  0
  -10.7993   -0.4511   -1.5498 H   0  0  0  0  0  0  0  0  0  0  0  0
  -10.5300   -1.8879   -0.5326 H   0  0  0  0  0  0  0  0  0  0  0  0
   -8.6405   -2.5790   -1.8621 H   0  0  0  0  0  0  0  0  0  0  0  0
   -9.7110   -3.0288   -3.6043 H   0  0  0  0  0  0  0  0  0  0  0  0
   -8.2027   -0.7155   -3.9519 H   0  0  0  0  0  0  0  0  0  0  0  0
   -6.9458    0.7754   -2.5963 H   0  0  0  0  0  0  0  0  0  0  0  0
   -6.7613   -0.6335    1.0714 H   0  0  0  0  0  0  0  0  0  0  0  0
   -7.2550   -1.9831   -0.0003 H   0  0  0  0  0  0  0  0  0  0  0  0
   -5.5664   -0.8269   -1.6644 H   0  0  0  0  0  0  0  0  0  0  0  0
   -4.9858   -1.8947   -0.3072 H   0  0  0  0  0  0  0  0  0  0  0  0
   -4.9531   -0.4416    2.0044 H   0  0  0  0  0  0  0  0  0  0  0  0
   -3.6780    0.7537    1.7185 H   0  0  0  0  0  0  0  0  0  0  0  0
   -3.4976   -2.2377    1.1036 H   0  0  0  0  0  0  0  0  0  0  0  0
   -2.7594   -1.3110    2.4217 H   0  0  0  0  0  0  0  0  0  0  0  0
   -1.4513    0.0087    0.6965 H   0  0  0  0  0  0  0  0  0  0  0  0
   -2.2745   -0.9372   -0.5554 H   0  0  0  0  0  0  0  0  0  0  0  0
   -1.4121   -3.0443    0.2527 H   0  0  0  0  0  0  0  0  0  0  0  0
   -0.6621   -2.2837    1.6684 H   0  0  0  0  0  0  0  0  0  0  0  0
    0.0563   -1.8778   -1.2998 H   0  0  0  0  0  0  0  0  0  0  0  0
    0.9452   -2.8081   -0.0839 H   0  0  0  0  0  0  0  0  0  0  0  0
    1.9886   -0.6810   -0.5512 H   0  0  0  0  0  0  0  0  0  0  0  0
    0.5747    0.2481   -0.0341 H   0  0  0  0  0  0  0  0  0  0  0  0
    2.2558    0.2005    1.6477 H   0  0  0  0  0  0  0  0  0  0  0  0
    0.8442   -0.6747    2.2946 H   0  0  0  0  0  0  0  0  0  0  0  0
    2.8877   -1.7709    2.8603 H   0  0  0  0  0  0  0  0  0  0  0  0
    2.0052   -2.8521    1.7571 H   0  0  0  0  0  0  0  0  0  0  0  0
    3.4488   -2.0277   -0.1441 H   0  0  0  0  0  0  0  0  0  0  0  0
    4.2561   -1.0115    1.0441 H   0  0  0  0  0  0  0  0  0  0  0  0
    3.8125   -4.0607    1.1613 H   0  0  0  0  0  0  0  0  0  0  0  0
    4.6354   -3.1583    2.4652 H   0  0  0  0  0  0  0  0  0  0  0  0
    7.6272   -3.9991   -0.8330 H   0  0  0  0  0  0  0  0  0  0  0  0
    9.7453   -2.7546   -1.0190 H   0  0  0  0  0  0  0  0  0  0  0  0
   11.2938   -1.1343   -0.0132 H   0  0  0  0  0  0  0  0  0  0  0  0
   10.7554    0.0289    1.2412 H   0  0  0  0  0  0  0  0  0  0  0  0
   12.0096    1.5102    0.3408 H   0  0  0  0  0  0  0  0  0  0  0  0
   12.4393    0.5167   -1.1185 H   0  0  0  0  0  0  0  0  0  0  0  0
   11.5379    2.2921   -2.5876 H   0  0  0  0  0  0  0  0  0  0  0  0
   12.7181    2.9826   -1.3357 H   0  0  0  0  0  0  0  0  0  0  0  0
   10.6138    4.3537   -1.6299 H   0  0  0  0  0  0  0  0  0  0  0  0
   10.7211    3.5714    0.0321 H   0  0  0  0  0  0  0  0  0  0  0  0
    9.4376    2.2633   -2.3796 H   0  0  0  0  0  0  0  0  0  0  0  0
    8.4609    3.3033   -1.2278 H   0  0  0  0  0  0  0  0  0  0  0  0
    9.4524    1.8438    0.6360 H   0  0  0  0  0  0  0  0  0  0  0  0
    8.3818    0.8997   -0.5425 H   0  0  0  0  0  0  0  0  0  0  0  0
    8.3027    0.0799    1.8137 H   0  0  0  0  0  0  0  0  0  0  0  0
    6.2478   -1.1353    2.0236 H   0  0  0  0  0  0  0  0  0  0  0  0
   -4.6684    1.6509   -1.4399 H   0  0  0  0  0  0  0  0  0  0  0  0
   -4.1419    2.0801    0.1898 H   0  0  0  0  0  0  0  0  0  0  0  0
  1  2  1  0
  2  3  1  0
  3  4  2  0
  4  5  1  0
  5  6  2  0
  6  7  1  0
  7  8  2  0
  8  9  1  0
  9 10  1  0
 10 11  1  0
 11 12  1  0
 12 13  1  0
 12 14  1  0
 14 15  2  0
 15 16  1  0
 16 17  1  1
 17 18  1  0
 18 19  1  0
 19 20  1  0
 20 21  1  0
 21 22  1  0
 22 23  1  0
 23 24  1  0
 24 25  1  0
 25 26  1  0
 26 27  1  0
 27 28  1  0
 28 29  1  0
 29 30  1  0
 30 31  1  0
 31 32  2  0
 32 33  1  0
 33 34  2  0
 34 35  1  0
 35 36  1  0
 36 37  1  0
 37 38  1  0
 38 39  1  0
 39 40  1  0
 40 41  1  0
 34 42  1  0
 42 43  2  0
 19 44  1  0
  8  3  1  0
 16 10  1  0
 43 31  1  0
 44  6  1  0
 16  7  1  0
 41 36  1  0
  1 45  1  0
  1 46  1  0
  1 47  1  0
  4 48  1  0
  5 49  1  0
 10 50  1  1
 11 51  1  0
 11 52  1  0
 12 53  1  1
 13 54  1  0
 14 55  1  0
 15 56  1  0
 17 57  1  0
 17 58  1  0
 18 59  1  0
 18 60  1  0
 20 61  1  0
 20 62  1  0
 21 63  1  0
 21 64  1  0
 22 65  1  0
 22 66  1  0
 23 67  1  0
 23 68  1  0
 24 69  1  0
 24 70  1  0
 25 71  1  0
 25 72  1  0
 26 73  1  0
 26 74  1  0
 27 75  1  0
 27 76  1  0
 28 77  1  0
 28 78  1  0
 29 79  1  0
 29 80  1  0
 32 81  1  0
 33 82  1  0
 35 83  1  0
 35 84  1  0
 37 85  1  0
 37 86  1  0
 38 87  1  0
 38 88  1  0
 39 89  1  0
 39 90  1  0
 40 91  1  0
 40 92  1  0
 41 93  1  0
 41 94  1  0
 42 95  1  0
 43 96  1  0
 44 97  1  0
 44 98  1  0
M  END
$$$$
