
     RDKit          3D

 64 67  0  0  0  0  0  0  0  0999 V2000
   -9.1752   -3.9418   -0.5833 C   0  0  0  0  0  0  0  0  0  0  0  0
   -9.4026   -2.6608   -0.0849 O   0  0  0  0  0  0  0  0  0  0  0  0
   -8.5607   -1.5953   -0.3232 C   0  0  0  0  0  0  0  0  0  0  0  0
   -7.4076   -1.6839   -1.0770 C   0  0  0  0  0  0  0  0  0  0  0  0
   -6.5774   -0.5941   -1.3035 C   0  0  0  0  0  0  0  0  0  0  0  0
   -6.9119    0.6217   -0.7590 C   0  0  0  0  0  0  0  0  0  0  0  0
   -6.1509    1.8615   -0.9351 C   0  0  0  0  0  0  0  0  0  0  0  0
   -5.0779    2.0453   -0.0037 N   0  0  0  0  0  0  0  0  0  0  0  0
   -5.1154    2.5784    1.1907 N   0  0  0  0  0  0  0  0  0  0  0  0
   -3.9084    2.5851    1.7549 C   0  0  0  0  0  0  0  0  0  0  0  0
   -3.0035    2.0065    0.8505 C   0  0  0  0  0  0  0  0  0  0  0  0
   -1.6289    1.8736    1.1161 N   0  0  0  0  0  0  0  0  0  0  0  0
   -0.6661    1.4367    0.2066 C   0  0  0  0  0  0  0  0  0  0  0  0
   -0.9222    1.0975   -0.9641 O   0  0  0  0  0  0  0  0  0  0  0  0
    0.7675    1.3443    0.5654 C   0  0  0  0  0  0  0  0  0  0  0  0
    1.5200    0.2207    0.3755 C   0  0  0  0  0  0  0  0  0  0  0  0
    2.8752    0.1633    0.6856 C   0  0  0  0  0  0  0  0  0  0  0  0
    3.6328   -1.0168    0.5014 N   0  0  0  0  0  0  0  0  0  0  0  0
    4.9861   -1.0474    0.1320 C   0  0  0  0  0  0  0  0  0  0  0  0
    5.5598    0.0614   -0.0795 O   0  0  0  0  0  0  0  0  0  0  0  0
    5.8010   -2.1921   -0.0351 N   0  0  0  0  0  0  0  0  0  0  0  0
    7.1566   -2.0554   -0.4456 C   0  0  0  0  0  0  0  0  0  0  0  0
    7.4821   -2.1607   -1.7853 C   0  0  0  0  0  0  0  0  0  0  0  0
    8.7978   -2.0011   -2.1699 C   0  0  0  0  0  0  0  0  0  0  0  0
    9.7906   -1.7388   -1.2392 C   0  0  0  0  0  0  0  0  0  0  0  0
   11.4681   -1.5332   -1.7235 Cl  0  0  0  0  0  0  0  0  0  0  0  0
    9.4764   -1.6318    0.0993 C   0  0  0  0  0  0  0  0  0  0  0  0
   10.5602   -1.3407    1.0890 C   0  0  0  0  0  0  0  0  0  0  0  0
   11.4943   -2.3327    1.0398 F   0  0  0  0  0  0  0  0  0  0  0  0
   11.1490   -0.1671    0.6811 F   0  0  0  0  0  0  0  0  0  0  0  0
   10.0422   -1.1501    2.3523 F   0  0  0  0  0  0  0  0  0  0  0  0
    8.1565   -1.7946    0.4643 C   0  0  0  0  0  0  0  0  0  0  0  0
    3.4248    1.3128    1.2031 C   0  0  0  0  0  0  0  0  0  0  0  0
    2.7110    2.4817    1.4189 C   0  0  0  0  0  0  0  0  0  0  0  0
    1.3595    2.4733    1.0864 C   0  0  0  0  0  0  0  0  0  0  0  0
    0.5591    3.6928    1.2927 C   0  0  0  0  0  0  0  0  0  0  0  0
   -3.7780    1.6850   -0.2260 C   0  0  0  0  0  0  0  0  0  0  0  0
   -3.4051    1.0605   -1.4292 N   0  0  0  0  0  0  0  0  0  0  0  0
   -8.0862    0.7106    0.0092 C   0  0  0  0  0  0  0  0  0  0  0  0
   -8.8934   -0.3716    0.2232 C   0  0  0  0  0  0  0  0  0  0  0  0
   -8.5277   -4.4828    0.1459 H   0  0  0  0  0  0  0  0  0  0  0  0
   -8.7047   -3.8906   -1.5733 H   0  0  0  0  0  0  0  0  0  0  0  0
  -10.1894   -4.4385   -0.6405 H   0  0  0  0  0  0  0  0  0  0  0  0
   -7.1230   -2.6186   -1.5111 H   0  0  0  0  0  0  0  0  0  0  0  0
   -5.6697   -0.6694   -1.8987 H   0  0  0  0  0  0  0  0  0  0  0  0
   -5.7674    1.9668   -1.9944 H   0  0  0  0  0  0  0  0  0  0  0  0
   -6.8212    2.7681   -0.8304 H   0  0  0  0  0  0  0  0  0  0  0  0
   -3.6243    2.9555    2.7260 H   0  0  0  0  0  0  0  0  0  0  0  0
   -1.2667    2.1189    2.1003 H   0  0  0  0  0  0  0  0  0  0  0  0
    1.0728   -0.6648   -0.0257 H   0  0  0  0  0  0  0  0  0  0  0  0
    3.1661   -1.9636    0.6451 H   0  0  0  0  0  0  0  0  0  0  0  0
    5.3572   -3.1271    0.1579 H   0  0  0  0  0  0  0  0  0  0  0  0
    6.7614   -2.3637   -2.5645 H   0  0  0  0  0  0  0  0  0  0  0  0
    9.0619   -2.0828   -3.2057 H   0  0  0  0  0  0  0  0  0  0  0  0
    7.9529   -1.6994    1.5417 H   0  0  0  0  0  0  0  0  0  0  0  0
    4.4859    1.2958    1.4680 H   0  0  0  0  0  0  0  0  0  0  0  0
    3.1830    3.3633    1.8297 H   0  0  0  0  0  0  0  0  0  0  0  0
    1.2096    4.5836    1.0346 H   0  0  0  0  0  0  0  0  0  0  0  0
    0.3496    3.8519    2.3888 H   0  0  0  0  0  0  0  0  0  0  0  0
   -0.3228    3.7828    0.6582 H   0  0  0  0  0  0  0  0  0  0  0  0
   -3.3272    0.0136   -1.4747 H   0  0  0  0  0  0  0  0  0  0  0  0
   -3.2059    1.6144   -2.3015 H   0  0  0  0  0  0  0  0  0  0  0  0
   -8.3433    1.6791    0.4377 H   0  0  0  0  0  0  0  0  0  0  0  0
   -9.8058   -0.2953    0.8203 H   0  0  0  0  0  0  0  0  0  0  0  0
  1  2  1  0
  2  3  1  0
  3  4  2  0
  4  5  1  0
  5  6  2  0
  6  7  1  0
  7  8  1  0
  8  9  1  0
  9 10  2  0
 10 11  1  0
 11 12  1  0
 12 13  1  0
 13 14  2  0
 13 15  1  0
 15 16  2  0
 16 17  1  0
 17 18  1  0
 18 19  1  0
 19 20  2  0
 19 21  1  0
 21 22  1  0
 22 23  2  0
 23 24  1  0
 24 25  2  0
 25 26  1  0
 25 27  1  0
 27 28  1  0
 28 29  1  0
 28 30  1  0
 28 31  1  0
 27 32  2  0
 17 33  2  0
 33 34  1  0
 34 35  2  0
 35 36  1  0
 11 37  2  0
 37 38  1  0
  6 39  1  0
 39 40  2  0
 40  3  1  0
 37  8  1  0
 35 15  1  0
 32 22  1  0
  1 41  1  0
  1 42  1  0
  1 43  1  0
  4 44  1  0
  5 45  1  0
  7 46  1  0
  7 47  1  0
 10 48  1  0
 12 49  1  0
 16 50  1  0
 18 51  1  0
 21 52  1  0
 23 53  1  0
 24 54  1  0
 32 55  1  0
 33 56  1  0
 34 57  1  0
 36 58  1  0
 36 59  1  0
 36 60  1  0
 38 61  1  0
 38 62  1  0
 39 63  1  0
 40 64  1  0
M  END
$$$$
