
     RDKit          3D

 57 60  0  0  0  0  0  0  0  0999 V2000
    4.8109    3.2593    1.2145 C   0  0  0  0  0  0  0  0  0  0  0  0
    3.9398    2.2536    0.5203 C   0  0  0  0  0  0  0  0  0  0  0  0
    3.3312    1.4537    1.2486 O   0  0  0  0  0  0  0  0  0  0  0  0
    3.8175    2.2169   -0.8822 N   0  0  0  0  0  0  0  0  0  0  0  0
    3.0416    1.3017   -1.6637 C   0  0  0  0  0  0  0  0  0  0  0  0
    3.4406   -0.1255   -1.6683 C   0  0  0  0  0  0  0  0  0  0  0  0
    3.4600   -0.8798   -0.4199 C   0  0  0  0  0  0  0  0  0  0  0  0
    4.6891   -1.1177    0.2407 C   0  0  0  0  0  0  0  0  0  0  0  0
    4.7697   -1.8011    1.4172 C   0  0  0  0  0  0  0  0  0  0  0  0
    3.6064   -2.2653    1.9612 C   0  0  0  0  0  0  0  0  0  0  0  0
    2.3768   -2.0389    1.3169 C   0  0  0  0  0  0  0  0  0  0  0  0
    2.2783   -1.3537    0.1322 C   0  0  0  0  0  0  0  0  0  0  0  0
    0.9830   -1.2181   -0.5545 C   0  0  0  0  0  0  0  0  0  0  0  0
    0.8541   -0.8494   -1.8262 O   0  0  0  0  0  0  0  0  0  0  0  0
   -0.3655   -0.7985   -2.2041 N   0  0  0  0  0  0  0  0  0  0  0  0
   -1.1903   -1.1443   -1.1698 C   0  0  0  0  0  0  0  0  0  0  0  0
   -2.6510   -1.2143   -1.1781 C   0  0  1  0  0  0  0  0  0  0  0  0
   -3.1689   -2.6095   -1.4726 C   0  0  0  0  0  0  0  0  0  0  0  0
   -4.5947   -2.6209   -1.3773 N   0  0  0  0  0  0  0  0  0  0  0  0
   -5.2346   -1.3539   -1.5331 C   0  0  0  0  0  0  0  0  0  0  0  0
   -4.7929   -0.3003   -0.5463 C   0  0  0  0  0  0  0  0  0  0  0  0
   -3.3797   -0.6529   -0.0201 C   0  0  1  0  0  0  0  0  0  0  0  0
   -3.6152   -1.5624    1.0156 O   0  0  0  0  0  0  0  0  0  0  0  0
   -2.8231    0.5894    0.5291 C   0  0  0  0  0  0  0  0  0  0  0  0
   -2.9741    0.9337    1.8628 C   0  0  0  0  0  0  0  0  0  0  0  0
   -2.4634    2.0930    2.3806 C   0  0  0  0  0  0  0  0  0  0  0  0
   -1.7701    2.9779    1.5924 C   0  0  0  0  0  0  0  0  0  0  0  0
   -1.2567    4.1301    2.0860 F   0  0  0  0  0  0  0  0  0  0  0  0
   -1.6021    2.6671    0.2643 C   0  0  0  0  0  0  0  0  0  0  0  0
   -0.9147    3.5399   -0.5269 F   0  0  0  0  0  0  0  0  0  0  0  0
   -2.1267    1.4828   -0.2536 C   0  0  0  0  0  0  0  0  0  0  0  0
   -0.3012   -1.4080   -0.1246 C   0  0  0  0  0  0  0  0  0  0  0  0
   -0.8367   -1.9310    1.6290 Br  0  0  0  0  0  0  0  0  0  0  0  0
    4.3003    3.5564    2.1708 H   0  0  0  0  0  0  0  0  0  0  0  0
    5.8070    2.8571    1.4376 H   0  0  0  0  0  0  0  0  0  0  0  0
    4.9193    4.1877    0.6151 H   0  0  0  0  0  0  0  0  0  0  0  0
    4.3903    2.9821   -1.3805 H   0  0  0  0  0  0  0  0  0  0  0  0
    1.9479    1.4637   -1.3947 H   0  0  0  0  0  0  0  0  0  0  0  0
    3.0713    1.6473   -2.7321 H   0  0  0  0  0  0  0  0  0  0  0  0
    4.5432   -0.1034   -2.0244 H   0  0  0  0  0  0  0  0  0  0  0  0
    2.9792   -0.7001   -2.5172 H   0  0  0  0  0  0  0  0  0  0  0  0
    5.6052   -0.7308   -0.2234 H   0  0  0  0  0  0  0  0  0  0  0  0
    5.7470   -1.9581    1.8882 H   0  0  0  0  0  0  0  0  0  0  0  0
    3.6366   -2.8091    2.8922 H   0  0  0  0  0  0  0  0  0  0  0  0
    1.4905   -2.4403    1.7855 H   0  0  0  0  0  0  0  0  0  0  0  0
   -2.9818   -0.6089   -2.0857 H   0  0  0  0  0  0  0  0  0  0  0  0
   -2.8727   -2.9303   -2.4893 H   0  0  0  0  0  0  0  0  0  0  0  0
   -2.7705   -3.3543   -0.7541 H   0  0  0  0  0  0  0  0  0  0  0  0
   -4.9997   -3.2542   -0.6821 H   0  0  0  0  0  0  0  0  0  0  0  0
   -5.1589   -0.9950   -2.5863 H   0  0  0  0  0  0  0  0  0  0  0  0
   -6.3259   -1.5144   -1.3586 H   0  0  0  0  0  0  0  0  0  0  0  0
   -4.6773    0.6454   -1.1142 H   0  0  0  0  0  0  0  0  0  0  0  0
   -5.4547   -0.1755    0.3094 H   0  0  0  0  0  0  0  0  0  0  0  0
   -4.4390   -1.2742    1.4815 H   0  0  0  0  0  0  0  0  0  0  0  0
   -3.5190    0.2395    2.4860 H   0  0  0  0  0  0  0  0  0  0  0  0
   -2.5817    2.3625    3.4252 H   0  0  0  0  0  0  0  0  0  0  0  0
   -1.9938    1.2531   -1.2867 H   0  0  0  0  0  0  0  0  0  0  0  0
  1  2  1  0
  2  3  2  0
  2  4  1  0
  4  5  1  0
  5  6  1  0
  6  7  1  0
  7  8  2  0
  8  9  1  0
  9 10  2  0
 10 11  1  0
 11 12  2  0
 12 13  1  0
 13 14  1  0
 14 15  1  0
 15 16  2  0
 16 17  1  0
 17 18  1  0
 18 19  1  0
 19 20  1  0
 20 21  1  0
 21 22  1  0
 22 23  1  1
 22 24  1  0
 24 25  2  0
 25 26  1  0
 26 27  2  0
 27 28  1  0
 27 29  1  0
 29 30  1  0
 29 31  2  0
 16 32  1  0
 32 33  1  0
 12  7  1  0
 32 13  2  0
 22 17  1  0
 31 24  1  0
  1 34  1  0
  1 35  1  0
  1 36  1  0
  4 37  1  0
  5 38  1  0
  5 39  1  0
  6 40  1  0
  6 41  1  0
  8 42  1  0
  9 43  1  0
 10 44  1  0
 11 45  1  0
 17 46  1  6
 18 47  1  0
 18 48  1  0
 19 49  1  0
 20 50  1  0
 20 51  1  0
 21 52  1  0
 21 53  1  0
 23 54  1  0
 25 55  1  0
 26 56  1  0
 31 57  1  0
M  END
$$$$
