
     RDKit          3D

 57 61  0  0  0  0  0  0  0  0999 V2000
   -0.9466   -0.2336   -2.9508 C   0  0  0  0  0  0  0  0  0  0  0  0
   -0.6074   -1.3762   -1.9922 C   0  0  2  0  0  0  0  0  0  0  0  0
   -1.6879   -1.6196   -0.9996 C   0  0  0  0  0  0  0  0  0  0  0  0
   -1.3696   -1.3462    0.3527 N   0  0  0  0  0  0  0  0  0  0  0  0
   -2.3940   -1.2105    1.3197 C   0  0  0  0  0  0  0  0  0  0  0  0
   -2.1326   -0.9726    2.5442 O   0  0  0  0  0  0  0  0  0  0  0  0
   -3.7910   -1.3443    0.9188 C   0  0  0  0  0  0  0  0  0  0  0  0
   -4.4134   -2.5856    0.8949 C   0  0  0  0  0  0  0  0  0  0  0  0
   -5.7271   -2.6774    0.5020 C   0  0  0  0  0  0  0  0  0  0  0  0
   -6.5364   -4.2215    0.4612 Cl  0  0  0  0  0  0  0  0  0  0  0  0
   -6.4157   -1.5562    0.1379 C   0  0  0  0  0  0  0  0  0  0  0  0
   -5.7946   -0.3413    0.1653 C   0  0  0  0  0  0  0  0  0  0  0  0
   -4.4701   -0.2085    0.5561 C   0  0  0  0  0  0  0  0  0  0  0  0
   -3.8346    1.0599    0.5915 N   0  0  0  0  0  0  0  0  0  0  0  0
   -4.1631    2.0655    1.4176 N   0  0  0  0  0  0  0  0  0  0  0  0
   -3.3806    3.1274    1.2083 C   0  0  0  0  0  0  0  0  0  0  0  0
   -2.5156    2.7657    0.1958 C   0  0  0  0  0  0  0  0  0  0  0  0
   -2.8415    1.5055   -0.1332 N   0  0  0  0  0  0  0  0  0  0  0  0
    0.0029   -1.1999    0.7728 C   0  0  2  0  0  0  0  0  0  0  0  0
    0.3830    0.2660    0.7380 C   0  0  0  0  0  0  0  0  0  0  0  0
    1.7903    0.4764    1.1640 C   0  0  0  0  0  0  0  0  0  0  0  0
    2.8049    0.7439    0.2642 C   0  0  0  0  0  0  0  0  0  0  0  0
    4.1036    0.9413    0.6214 C   0  0  0  0  0  0  0  0  0  0  0  0
    5.1268    1.2210   -0.3982 C   0  0  0  0  0  0  0  0  0  0  0  0
    6.4118    1.4161   -0.0599 N   0  0  0  0  0  0  0  0  0  0  0  0
    7.3608    1.6732   -0.9872 C   0  0  0  0  0  0  0  0  0  0  0  0
    7.0355    1.7440   -2.3255 C   0  0  0  0  0  0  0  0  0  0  0  0
    5.7103    1.5420   -2.6661 C   0  0  0  0  0  0  0  0  0  0  0  0
    4.8133    1.2908   -1.7036 N   0  0  0  0  0  0  0  0  0  0  0  0
    4.4284    0.8707    1.9586 C   0  0  0  0  0  0  0  0  0  0  0  0
    3.4264    0.6020    2.8928 C   0  0  0  0  0  0  0  0  0  0  0  0
    2.1134    0.4050    2.5050 C   0  0  0  0  0  0  0  0  0  0  0  0
    1.2081    0.1497    3.4789 F   0  0  0  0  0  0  0  0  0  0  0  0
    0.8380   -1.8928   -0.2851 C   0  0  0  0  0  0  0  0  0  0  0  0
    0.6400   -1.1699   -1.4615 O   0  0  0  0  0  0  0  0  0  0  0  0
   -0.9283    0.7316   -2.3941 H   0  0  0  0  0  0  0  0  0  0  0  0
   -0.2342   -0.2320   -3.8013 H   0  0  0  0  0  0  0  0  0  0  0  0
   -1.9733   -0.3455   -3.3544 H   0  0  0  0  0  0  0  0  0  0  0  0
   -0.5346   -2.2826   -2.6533 H   0  0  0  0  0  0  0  0  0  0  0  0
   -2.5671   -1.0019   -1.3012 H   0  0  0  0  0  0  0  0  0  0  0  0
   -2.0806   -2.6795   -1.0791 H   0  0  0  0  0  0  0  0  0  0  0  0
   -3.8237   -3.4472    1.1931 H   0  0  0  0  0  0  0  0  0  0  0  0
   -7.4484   -1.6010   -0.1748 H   0  0  0  0  0  0  0  0  0  0  0  0
   -6.3213    0.5534   -0.1183 H   0  0  0  0  0  0  0  0  0  0  0  0
   -3.3550    4.1007    1.6789 H   0  0  0  0  0  0  0  0  0  0  0  0
   -1.7403    3.4018   -0.2232 H   0  0  0  0  0  0  0  0  0  0  0  0
    0.1932   -1.5890    1.7827 H   0  0  0  0  0  0  0  0  0  0  0  0
    0.2007    0.7027   -0.2727 H   0  0  0  0  0  0  0  0  0  0  0  0
   -0.2545    0.8408    1.4420 H   0  0  0  0  0  0  0  0  0  0  0  0
    2.5358    0.7983   -0.8001 H   0  0  0  0  0  0  0  0  0  0  0  0
    8.3925    1.8304   -0.7215 H   0  0  0  0  0  0  0  0  0  0  0  0
    7.7617    1.9471   -3.1008 H   0  0  0  0  0  0  0  0  0  0  0  0
    5.4500    1.5972   -3.7192 H   0  0  0  0  0  0  0  0  0  0  0  0
    5.4556    1.0244    2.2649 H   0  0  0  0  0  0  0  0  0  0  0  0
    3.6869    0.5476    3.9428 H   0  0  0  0  0  0  0  0  0  0  0  0
    1.9161   -1.8759   -0.0393 H   0  0  0  0  0  0  0  0  0  0  0  0
    0.4929   -2.9317   -0.4666 H   0  0  0  0  0  0  0  0  0  0  0  0
  1  2  1  0
  2  3  1  0
  3  4  1  0
  4  5  1  0
  5  6  2  0
  5  7  1  0
  7  8  2  0
  8  9  1  0
  9 10  1  0
  9 11  2  0
 11 12  1  0
 12 13  2  0
 13 14  1  0
 14 15  1  0
 15 16  2  0
 16 17  1  0
 17 18  2  0
  4 19  1  0
 19 20  1  0
 20 21  1  0
 21 22  2  0
 22 23  1  0
 23 24  1  0
 24 25  2  0
 25 26  1  0
 26 27  2  0
 27 28  1  0
 28 29  2  0
 23 30  2  0
 30 31  1  0
 31 32  2  0
 32 33  1  0
 19 34  1  0
 34 35  1  0
 35  2  1  0
 13  7  1  0
 18 14  1  0
 32 21  1  0
 29 24  1  0
  1 36  1  0
  1 37  1  0
  1 38  1  0
  2 39  1  6
  3 40  1  0
  3 41  1  0
  8 42  1  0
 11 43  1  0
 12 44  1  0
 16 45  1  0
 17 46  1  0
 19 47  1  1
 20 48  1  0
 20 49  1  0
 22 50  1  0
 26 51  1  0
 27 52  1  0
 28 53  1  0
 30 54  1  0
 31 55  1  0
 34 56  1  0
 34 57  1  0
M  END
$$$$
