
     RDKit          3D

 53 56  0  0  0  0  0  0  0  0999 V2000
   -5.1156    0.3074    1.3253 O   0  0  0  0  0  0  0  0  0  0  0  0
   -4.7605    0.5537    0.1553 C   0  0  0  0  0  0  0  0  0  0  0  0
   -5.5318    0.1388   -0.9462 N   0  0  0  0  0  0  0  0  0  0  0  0
   -6.7446   -0.5725   -0.8655 C   0  0  0  0  0  0  0  0  0  0  0  0
   -7.4059   -0.9899    0.2482 C   0  0  0  0  0  0  0  0  0  0  0  0
   -8.6194   -1.6970    0.1526 C   0  0  0  0  0  0  0  0  0  0  0  0
   -9.1637   -1.9816   -1.0778 C   0  0  0  0  0  0  0  0  0  0  0  0
   -8.4766   -1.5502   -2.1497 N   0  0  0  0  0  0  0  0  0  0  0  0
   -7.3456   -0.8914   -2.0547 N   0  0  0  0  0  0  0  0  0  0  0  0
   -3.5245    1.2831   -0.0238 N   0  0  0  0  0  0  0  0  0  0  0  0
   -3.1044    1.5744   -1.3814 C   0  0  0  0  0  0  0  0  0  0  0  0
   -1.7000    2.1175   -1.4513 C   0  0  0  0  0  0  0  0  0  0  0  0
   -0.8604    1.4474   -0.3768 C   0  0  0  0  0  0  0  0  0  0  0  0
    0.2449    0.8650   -0.7227 C   0  0  0  0  0  0  0  0  0  0  0  0
    1.1389    0.1851    0.1803 C   0  0  0  0  0  0  0  0  0  0  0  0
    0.7631   -0.8779    0.9634 C   0  0  0  0  0  0  0  0  0  0  0  0
    1.6197   -1.5070    1.8600 C   0  0  0  0  0  0  0  0  0  0  0  0
    2.9138   -1.0513    1.9774 C   0  0  0  0  0  0  0  0  0  0  0  0
    3.3256    0.0140    1.2049 C   0  0  0  0  0  0  0  0  0  0  0  0
    4.6287    0.4571    1.3364 O   0  0  0  0  0  0  0  0  0  0  0  0
    5.6785   -0.0334    0.5751 C   0  0  0  0  0  0  0  0  0  0  0  0
    6.9392    0.5003    0.8084 C   0  0  0  0  0  0  0  0  0  0  0  0
    8.0273    0.0795    0.1088 C   0  0  0  0  0  0  0  0  0  0  0  0
    7.8430   -0.9060   -0.8528 C   0  0  0  0  0  0  0  0  0  0  0  0
    9.0588   -1.3394   -1.5964 C   0  0  0  0  0  0  0  0  0  0  0  0
    8.9430   -2.5881   -2.1351 F   0  0  0  0  0  0  0  0  0  0  0  0
   10.1795   -1.3291   -0.7605 F   0  0  0  0  0  0  0  0  0  0  0  0
    9.2713   -0.3948   -2.5873 F   0  0  0  0  0  0  0  0  0  0  0  0
    6.5895   -1.4372   -1.0855 C   0  0  0  0  0  0  0  0  0  0  0  0
    5.5679   -0.9751   -0.3602 N   0  0  0  0  0  0  0  0  0  0  0  0
    2.4690    0.6232    0.3265 C   0  0  0  0  0  0  0  0  0  0  0  0
   -1.2986    1.5289    1.0254 C   0  0  0  0  0  0  0  0  0  0  0  0
   -2.8017    1.6691    1.1460 C   0  0  0  0  0  0  0  0  0  0  0  0
   -5.1284    0.4059   -1.9065 H   0  0  0  0  0  0  0  0  0  0  0  0
   -6.9879   -0.7716    1.2082 H   0  0  0  0  0  0  0  0  0  0  0  0
   -9.1093   -2.0086    1.0781 H   0  0  0  0  0  0  0  0  0  0  0  0
  -10.0933   -2.5224   -1.1853 H   0  0  0  0  0  0  0  0  0  0  0  0
   -3.0817    0.5884   -1.9234 H   0  0  0  0  0  0  0  0  0  0  0  0
   -3.8474    2.2556   -1.8303 H   0  0  0  0  0  0  0  0  0  0  0  0
   -1.7407    3.1989   -1.2986 H   0  0  0  0  0  0  0  0  0  0  0  0
   -1.2962    1.8716   -2.4531 H   0  0  0  0  0  0  0  0  0  0  0  0
    0.5565    0.8697   -1.7760 H   0  0  0  0  0  0  0  0  0  0  0  0
   -0.2379   -1.2924    0.8856 H   0  0  0  0  0  0  0  0  0  0  0  0
    1.2852   -2.3484    2.4664 H   0  0  0  0  0  0  0  0  0  0  0  0
    3.5600   -1.5579    2.6821 H   0  0  0  0  0  0  0  0  0  0  0  0
    7.0500    1.2726    1.5699 H   0  0  0  0  0  0  0  0  0  0  0  0
    8.9893    0.5224    0.3234 H   0  0  0  0  0  0  0  0  0  0  0  0
    6.5124   -2.2005   -1.8466 H   0  0  0  0  0  0  0  0  0  0  0  0
    2.7579    1.4684   -0.3014 H   0  0  0  0  0  0  0  0  0  0  0  0
   -0.9865    0.6871    1.6370 H   0  0  0  0  0  0  0  0  0  0  0  0
   -0.7927    2.4440    1.4445 H   0  0  0  0  0  0  0  0  0  0  0  0
   -3.0027    2.7727    1.2845 H   0  0  0  0  0  0  0  0  0  0  0  0
   -3.1552    1.1220    2.0292 H   0  0  0  0  0  0  0  0  0  0  0  0
  1  2  2  0
  2  3  1  0
  3  4  1  0
  4  5  2  0
  5  6  1  0
  6  7  2  0
  7  8  1  0
  8  9  2  0
  2 10  1  0
 10 11  1  0
 11 12  1  0
 12 13  1  0
 13 14  2  3
 14 15  1  0
 15 16  2  0
 16 17  1  0
 17 18  2  0
 18 19  1  0
 19 20  1  0
 20 21  1  0
 21 22  2  0
 22 23  1  0
 23 24  2  0
 24 25  1  0
 25 26  1  0
 25 27  1  0
 25 28  1  0
 24 29  1  0
 29 30  2  0
 19 31  2  0
 13 32  1  0
 32 33  1  0
  9  4  1  0
 33 10  1  0
 31 15  1  0
 30 21  1  0
  3 34  1  0
  5 35  1  0
  6 36  1  0
  7 37  1  0
 11 38  1  0
 11 39  1  0
 12 40  1  0
 12 41  1  0
 14 42  1  0
 16 43  1  0
 17 44  1  0
 18 45  1  0
 22 46  1  0
 23 47  1  0
 29 48  1  0
 31 49  1  0
 32 50  1  0
 32 51  1  0
 33 52  1  0
 33 53  1  0
M  END
$$$$
