
     RDKit          3D

 28 30  0  0  0  0  0  0  0  0999 V2000
    4.7967   -0.8257    0.4949 O   0  0  0  0  0  0  0  0  0  0  0  0
    3.5517   -0.2555    0.3385 C   0  0  0  0  0  0  0  0  0  0  0  0
    2.4294   -1.0524    0.3903 C   0  0  0  0  0  0  0  0  0  0  0  0
    2.4689   -2.4242    0.5945 O   0  0  0  0  0  0  0  0  0  0  0  0
    1.1836   -0.4853    0.2343 C   0  0  0  0  0  0  0  0  0  0  0  0
    1.0938    0.8811    0.0280 C   0  0  0  0  0  0  0  0  0  0  0  0
    2.2291    1.6415   -0.0178 C   0  0  0  0  0  0  0  0  0  0  0  0
    3.5149    1.1130    0.1349 C   0  0  0  0  0  0  0  0  0  0  0  0
   -0.2033    1.5344   -0.1437 C   0  0  0  0  0  0  0  0  0  0  0  0
   -0.2786    2.7697   -0.3299 O   0  0  0  0  0  0  0  0  0  0  0  0
   -1.4271    0.7436   -0.0987 C   0  0  0  0  0  0  0  0  0  0  0  0
   -2.6367    1.3734   -0.2618 C   0  0  0  0  0  0  0  0  0  0  0  0
   -2.6789    2.7306   -0.4640 O   0  0  0  0  0  0  0  0  0  0  0  0
   -3.7975    0.6156   -0.2180 C   0  0  0  0  0  0  0  0  0  0  0  0
   -3.6704   -0.7587   -0.0083 C   0  0  0  0  0  0  0  0  0  0  0  0
   -2.4578   -1.3992    0.1566 C   0  0  0  0  0  0  0  0  0  0  0  0
   -2.3732   -2.7685    0.3630 O   0  0  0  0  0  0  0  0  0  0  0  0
   -1.3092   -0.6182    0.1086 C   0  0  0  0  0  0  0  0  0  0  0  0
   -0.0284   -1.2945    0.2827 C   0  0  0  0  0  0  0  0  0  0  0  0
    0.0481   -2.5345    0.4697 O   0  0  0  0  0  0  0  0  0  0  0  0
    5.4741   -0.3604    1.1178 H   0  0  0  0  0  0  0  0  0  0  0  0
    2.4750   -3.0882   -0.1892 H   0  0  0  0  0  0  0  0  0  0  0  0
    2.1302    2.7009   -0.1794 H   0  0  0  0  0  0  0  0  0  0  0  0
    4.4054    1.7257    0.0967 H   0  0  0  0  0  0  0  0  0  0  0  0
   -2.6856    3.4338    0.2380 H   0  0  0  0  0  0  0  0  0  0  0  0
   -4.7669    1.0861   -0.3437 H   0  0  0  0  0  0  0  0  0  0  0  0
   -4.5876   -1.3308    0.0224 H   0  0  0  0  0  0  0  0  0  0  0  0
   -2.8997   -3.1532    1.1611 H   0  0  0  0  0  0  0  0  0  0  0  0
  1  2  1  0
  2  3  2  0
  3  4  1  0
  3  5  1  0
  5  6  2  0
  6  7  1  0
  7  8  2  0
  6  9  1  0
  9 10  2  0
  9 11  1  0
 11 12  2  0
 12 13  1  0
 12 14  1  0
 14 15  2  0
 15 16  1  0
 16 17  1  0
 16 18  2  0
 18 19  1  0
 19 20  2  0
  8  2  1  0
 18 11  1  0
 19  5  1  0
  1 21  1  0
  4 22  1  0
  7 23  1  0
  8 24  1  0
 13 25  1  0
 14 26  1  0
 15 27  1  0
 17 28  1  0
M  END
$$$$
