
     RDKit          3D

 50 52  0  0  0  0  0  0  0  0999 V2000
   -0.1677   -2.7448    1.6786 C   0  0  0  0  0  0  0  0  0  0  0  0
   -1.1766   -2.6948    0.8761 C   0  0  0  0  0  0  0  0  0  0  0  0
   -1.8485   -4.0047    0.5370 C   0  0  0  0  0  0  0  0  0  0  0  0
   -1.6740   -1.5079    0.2271 C   0  0  0  0  0  0  0  0  0  0  0  0
   -2.9894   -1.5853   -0.2742 C   0  0  0  0  0  0  0  0  0  0  0  0
   -3.5320   -0.5275   -0.8558 N   0  0  0  0  0  0  0  0  0  0  0  0
   -2.8478    0.6540   -0.9875 C   0  0  0  0  0  0  0  0  0  0  0  0
   -3.5811    1.7225   -1.6455 C   0  0  0  0  0  0  0  0  0  0  0  0
   -4.8836    1.4839   -2.0830 C   0  0  0  0  0  0  0  0  0  0  0  0
   -5.6583    2.4264   -2.7144 C   0  0  0  0  0  0  0  0  0  0  0  0
   -7.2949    2.0718   -3.2454 Cl  0  0  0  0  0  0  0  0  0  0  0  0
   -5.1542    3.6880   -2.9453 C   0  0  0  0  0  0  0  0  0  0  0  0
   -3.8805    3.9638   -2.5320 C   0  0  0  0  0  0  0  0  0  0  0  0
   -3.1133    2.9844   -1.8909 C   0  0  0  0  0  0  0  0  0  0  0  0
   -1.8631    3.3131   -1.5051 F   0  0  0  0  0  0  0  0  0  0  0  0
   -1.5692    0.7414   -0.5079 C   0  0  0  0  0  0  0  0  0  0  0  0
   -0.9598   -0.3615    0.1124 C   0  0  0  0  0  0  0  0  0  0  0  0
    0.4082   -0.2159    0.5384 N   0  0  0  0  0  0  0  0  0  0  0  0
    1.4474   -0.9157   -0.1243 C   0  0  0  0  0  0  0  0  0  0  0  0
    1.1043   -1.6974   -1.2175 C   0  0  0  0  0  0  0  0  0  0  0  0
    2.0394   -2.4098   -1.9166 C   0  0  0  0  0  0  0  0  0  0  0  0
    3.3217   -2.3414   -1.5230 N   0  0  0  0  0  0  0  0  0  0  0  0
    3.6663   -1.5881   -0.4662 C   0  0  0  0  0  0  0  0  0  0  0  0
    2.7423   -0.8416    0.2799 C   0  0  0  0  0  0  0  0  0  0  0  0
    3.2091   -0.0572    1.4152 C   0  0  0  0  0  0  0  0  0  0  0  0
    2.4409    0.6123    2.1182 O   0  0  0  0  0  0  0  0  0  0  0  0
    4.5864   -0.0091    1.7925 N   0  0  0  0  0  0  0  0  0  0  0  0
    5.0456    0.7792    2.9241 C   0  0  0  0  0  0  0  0  0  0  0  0
    4.7646    2.2488    2.7474 C   0  0  0  0  0  0  0  0  0  0  0  0
    5.2116    2.9916    3.8403 O   0  0  0  0  0  0  0  0  0  0  0  0
    0.4606   -1.9855    2.0683 H   0  0  0  0  0  0  0  0  0  0  0  0
    0.1304   -3.7583    2.0547 H   0  0  0  0  0  0  0  0  0  0  0  0
   -2.8295   -4.0035    1.0619 H   0  0  0  0  0  0  0  0  0  0  0  0
   -1.2221   -4.8634    0.8100 H   0  0  0  0  0  0  0  0  0  0  0  0
   -2.0534   -4.0688   -0.5481 H   0  0  0  0  0  0  0  0  0  0  0  0
   -3.5671   -2.5146   -0.1852 H   0  0  0  0  0  0  0  0  0  0  0  0
   -5.3650    0.5116   -1.9422 H   0  0  0  0  0  0  0  0  0  0  0  0
   -5.7761    4.4424   -3.4514 H   0  0  0  0  0  0  0  0  0  0  0  0
   -3.4331    4.9282   -2.6837 H   0  0  0  0  0  0  0  0  0  0  0  0
   -1.0139    1.6469   -0.5965 H   0  0  0  0  0  0  0  0  0  0  0  0
    0.5901    0.4064    1.3230 H   0  0  0  0  0  0  0  0  0  0  0  0
    0.0731   -1.7717   -1.5617 H   0  0  0  0  0  0  0  0  0  0  0  0
    1.7941   -3.0322   -2.7802 H   0  0  0  0  0  0  0  0  0  0  0  0
    4.7085   -1.5782   -0.2052 H   0  0  0  0  0  0  0  0  0  0  0  0
    5.3124   -0.5281    1.2814 H   0  0  0  0  0  0  0  0  0  0  0  0
    4.4081    0.4344    3.7943 H   0  0  0  0  0  0  0  0  0  0  0  0
    6.0794    0.5652    3.1841 H   0  0  0  0  0  0  0  0  0  0  0  0
    5.3608    2.6137    1.8717 H   0  0  0  0  0  0  0  0  0  0  0  0
    3.7140    2.4710    2.5079 H   0  0  0  0  0  0  0  0  0  0  0  0
    4.8347    3.9060    3.7319 H   0  0  0  0  0  0  0  0  0  0  0  0
  1  2  2  3
  2  3  1  0
  2  4  1  0
  4  5  2  0
  5  6  1  0
  6  7  2  0
  7  8  1  0
  8  9  2  0
  9 10  1  0
 10 11  1  0
 10 12  2  0
 12 13  1  0
 13 14  2  0
 14 15  1  0
  7 16  1  0
 16 17  2  0
 17 18  1  0
 18 19  1  0
 19 20  2  0
 20 21  1  0
 21 22  2  0
 22 23  1  0
 23 24  2  0
 24 25  1  0
 25 26  2  0
 25 27  1  0
 27 28  1  0
 28 29  1  0
 29 30  1  0
 17  4  1  0
 24 19  1  0
 14  8  1  0
  1 31  1  0
  1 32  1  0
  3 33  1  0
  3 34  1  0
  3 35  1  0
  5 36  1  0
  9 37  1  0
 12 38  1  0
 13 39  1  0
 16 40  1  0
 18 41  1  0
 20 42  1  0
 21 43  1  0
 23 44  1  0
 27 45  1  0
 28 46  1  0
 28 47  1  0
 29 48  1  0
 29 49  1  0
 30 50  1  0
M  END
$$$$
