
     RDKit          3D

 46 48  0  0  0  0  0  0  0  0999 V2000
    1.6088   -0.8735   -1.8661 C   0  0  2  0  0  0  0  0  0  0  0  0
    2.5182   -0.3553   -3.0060 C   0  0  0  0  0  0  0  0  0  0  0  0
    0.3333   -0.3898   -2.2651 O   0  0  0  0  0  0  0  0  0  0  0  0
    1.9786   -0.1889   -0.5981 C   0  0  1  0  0  0  0  0  0  0  0  0
    1.1933   -0.6218    0.6011 C   0  0  0  0  0  0  0  0  0  0  0  0
   -0.2509   -0.3723    0.4280 C   0  0  0  0  0  0  0  0  0  0  0  0
   -1.0154   -0.7421    1.5804 O   0  0  0  0  0  0  0  0  0  0  0  0
   -2.3906   -0.5266    1.4703 C   0  0  0  0  0  0  0  0  0  0  0  0
   -2.9527    0.0094    0.3147 C   0  0  0  0  0  0  0  0  0  0  0  0
   -4.3281    0.1877    0.2967 C   0  0  0  0  0  0  0  0  0  0  0  0
   -5.1189   -0.1568    1.3947 C   0  0  0  0  0  0  0  0  0  0  0  0
   -6.4781    0.0533    1.2930 C   0  0  0  0  0  0  0  0  0  0  0  0
   -7.0803    0.5768    0.1810 C   0  0  0  0  0  0  0  0  0  0  0  0
   -6.3194    0.9240   -0.9147 C   0  0  0  0  0  0  0  0  0  0  0  0
   -4.9576    0.7143   -0.8146 C   0  0  0  0  0  0  0  0  0  0  0  0
   -4.4926   -0.6810    2.5014 C   0  0  0  0  0  0  0  0  0  0  0  0
   -3.1318   -0.8856    2.5890 C   0  0  0  0  0  0  0  0  0  0  0  0
    3.4192   -0.2651   -0.3495 N   0  0  0  0  0  0  0  0  0  0  0  0
    4.2449   -1.2913   -0.6419 C   0  0  0  0  0  0  0  0  0  0  0  0
    5.4997   -0.9855   -0.2607 N   0  0  0  0  0  0  0  0  0  0  0  0
    5.5176    0.2422    0.2861 C   0  0  0  0  0  0  0  0  0  0  0  0
    4.2064    0.6666    0.2170 C   0  0  0  0  0  0  0  0  0  0  0  0
    6.6585    0.9706    0.8320 C   0  0  0  0  0  0  0  0  0  0  0  0
    6.4422    2.2715    1.3651 N   0  0  0  0  0  0  0  0  0  0  0  0
    7.7906    0.4221    0.8112 O   0  0  0  0  0  0  0  0  0  0  0  0
    1.5656   -1.9663   -1.8389 H   0  0  0  0  0  0  0  0  0  0  0  0
    1.9733   -0.4013   -3.9875 H   0  0  0  0  0  0  0  0  0  0  0  0
    2.6707    0.7259   -2.8047 H   0  0  0  0  0  0  0  0  0  0  0  0
    3.4533   -0.9114   -3.0575 H   0  0  0  0  0  0  0  0  0  0  0  0
   -0.0563   -1.0011   -2.9562 H   0  0  0  0  0  0  0  0  0  0  0  0
    1.8134    0.9189   -0.7976 H   0  0  0  0  0  0  0  0  0  0  0  0
    1.3293   -1.7426    0.7013 H   0  0  0  0  0  0  0  0  0  0  0  0
    1.5620   -0.1385    1.5366 H   0  0  0  0  0  0  0  0  0  0  0  0
   -0.7010   -0.9614   -0.4018 H   0  0  0  0  0  0  0  0  0  0  0  0
   -0.4556    0.6935    0.2317 H   0  0  0  0  0  0  0  0  0  0  0  0
   -2.3325    0.2692   -0.5207 H   0  0  0  0  0  0  0  0  0  0  0  0
   -7.0495   -0.2318    2.1761 H   0  0  0  0  0  0  0  0  0  0  0  0
   -8.1483    0.7097    0.1807 H   0  0  0  0  0  0  0  0  0  0  0  0
   -6.7736    1.3312   -1.7841 H   0  0  0  0  0  0  0  0  0  0  0  0
   -4.3770    0.9939   -1.6868 H   0  0  0  0  0  0  0  0  0  0  0  0
   -5.1109   -0.9511    3.3615 H   0  0  0  0  0  0  0  0  0  0  0  0
   -2.6621   -1.2997    3.4708 H   0  0  0  0  0  0  0  0  0  0  0  0
    3.9526   -2.2273   -1.1133 H   0  0  0  0  0  0  0  0  0  0  0  0
    3.8034    1.6190    0.5595 H   0  0  0  0  0  0  0  0  0  0  0  0
    5.7478    2.6448    2.0270 H   0  0  0  0  0  0  0  0  0  0  0  0
    6.9006    3.2237    1.2589 H   0  0  0  0  0  0  0  0  0  0  0  0
  1  2  1  0
  1  3  1  0
  1  4  1  0
  4  5  1  0
  5  6  1  0
  6  7  1  0
  7  8  1  0
  8  9  2  0
  9 10  1  0
 10 11  2  0
 11 12  1  0
 12 13  2  0
 13 14  1  0
 14 15  2  0
 11 16  1  0
 16 17  2  0
  4 18  1  0
 18 19  1  0
 19 20  2  0
 20 21  1  0
 21 22  2  0
 21 23  1  0
 23 24  1  0
 23 25  2  0
 17  8  1  0
 22 18  1  0
 15 10  1  0
  1 26  1  1
  2 27  1  0
  2 28  1  0
  2 29  1  0
  3 30  1  0
  4 31  1  6
  5 32  1  0
  5 33  1  0
  6 34  1  0
  6 35  1  0
  9 36  1  0
 12 37  1  0
 13 38  1  0
 14 39  1  0
 15 40  1  0
 16 41  1  0
 17 42  1  0
 19 43  1  0
 22 44  1  0
 24 45  1  0
 24 46  1  0
M  END
$$$$
