
     RDKit          3D

109113  0  0  0  0  0  0  0  0999 V2000
   -2.2533    1.6015    5.1820 C   0  0  0  0  0  0  0  0  0  0  0  0
   -0.9861    0.9457    4.7910 C   0  0  0  0  0  0  0  0  0  0  0  0
   -0.3615    0.3045    5.6731 O   0  0  0  0  0  0  0  0  0  0  0  0
   -0.4370    0.9982    3.4862 N   0  0  0  0  0  0  0  0  0  0  0  0
    0.8308    0.3155    3.1960 C   0  0  1  0  0  0  0  0  0  0  0  0
    0.5711   -0.8870    2.3027 C   0  0  0  0  0  0  0  0  0  0  0  0
   -0.0376   -0.5269    1.0276 C   0  0  0  0  0  0  0  0  0  0  0  0
   -0.2043    0.6741    0.7216 O   0  0  0  0  0  0  0  0  0  0  0  0
   -0.4496   -1.5327    0.1229 N   0  0  0  0  0  0  0  0  0  0  0  0
   -1.0680   -1.2416   -1.1628 C   0  0  0  0  0  0  0  0  0  0  0  0
   -2.3408   -0.4378   -0.9783 C   0  0  0  0  0  0  0  0  0  0  0  0
   -3.3518   -1.1464   -0.1227 C   0  0  0  0  0  0  0  0  0  0  0  0
   -3.7719   -2.4742   -0.7165 C   0  0  0  0  0  0  0  0  0  0  0  0
   -4.3029   -2.5777   -1.8451 O   0  0  0  0  0  0  0  0  0  0  0  0
   -5.0391   -2.5184   -2.8507 C   0  0  0  0  0  0  0  0  0  0  0  0
   -5.3893   -1.1790   -3.4698 C   0  0  0  0  0  0  0  0  0  0  0  0
   -4.5245   -0.6208   -4.3880 C   0  0  0  0  0  0  0  0  0  0  0  0
   -4.8651    0.5703   -4.9645 C   0  0  0  0  0  0  0  0  0  0  0  0
   -6.0262    1.2349   -4.6718 C   0  0  0  0  0  0  0  0  0  0  0  0
   -6.8897    0.6792   -3.7560 C   0  0  0  0  0  0  0  0  0  0  0  0
   -6.5634   -0.5375   -3.1533 C   0  0  0  0  0  0  0  0  0  0  0  0
   -4.5473   -0.2606    0.0643 C   0  0  0  0  0  0  0  0  0  0  0  0
   -5.5530   -0.8653    0.8512 O   0  0  0  0  0  0  0  0  0  0  0  0
   -6.5676    0.1067    0.9268 C   0  0  0  0  0  0  0  0  0  0  0  0
   -7.6943   -0.3995    1.7377 C   0  0  0  0  0  0  0  0  0  0  0  0
   -7.6763   -0.1856    3.1184 C   0  0  0  0  0  0  0  0  0  0  0  0
   -8.6913   -0.6212    3.9375 C   0  0  0  0  0  0  0  0  0  0  0  0
   -9.7508   -1.2857    3.3729 C   0  0  0  0  0  0  0  0  0  0  0  0
   -9.8018   -1.5138    2.0172 C   0  0  0  0  0  0  0  0  0  0  0  0
   -8.7737   -1.0675    1.2216 C   0  0  0  0  0  0  0  0  0  0  0  0
    1.7371    1.3073    2.5937 C   0  0  0  0  0  0  0  0  0  0  0  0
    1.3465    2.4719    2.3478 O   0  0  0  0  0  0  0  0  0  0  0  0
    3.0858    0.9454    2.2835 N   0  0  0  0  0  0  0  0  0  0  0  0
    4.0303    1.8876    1.6836 C   0  0  1  0  0  0  0  0  0  0  0  0
    5.1107    2.1397    2.7351 C   0  0  0  0  0  0  0  0  0  0  0  0
    6.1657    3.0921    2.2882 C   0  0  0  0  0  0  0  0  0  0  0  0
    6.9329    2.6777    1.0759 C   0  0  0  0  0  0  0  0  0  0  0  0
    7.1796    3.1779    3.4353 C   0  0  0  0  0  0  0  0  0  0  0  0
    4.7154    1.1067    0.4925 B   0  0  0  0  0  0  0  0  0  0  0  0
    5.2912   -0.2221    0.6824 O   0  0  0  0  0  0  0  0  0  0  0  0
    5.2903   -0.7846   -0.5897 C   0  0  2  0  0  0  0  0  0  0  0  0
    6.7153   -0.7663   -1.0896 C   0  0  0  0  0  0  0  0  0  0  0  0
    6.8338   -0.3731   -2.5279 C   0  0  2  0  0  0  0  0  0  0  0  0
    6.1449    0.9632   -2.8003 C   0  0  0  0  0  0  0  0  0  0  0  0
    4.8513    0.1295   -2.8937 C   0  0  1  0  0  0  0  0  0  0  0  0
    5.7056   -0.9836   -3.3731 C   0  0  0  0  0  0  0  0  0  0  0  0
    6.0644   -0.7763   -4.8421 C   0  0  0  0  0  0  0  0  0  0  0  0
    5.3548   -2.3775   -3.0335 C   0  0  0  0  0  0  0  0  0  0  0  0
    4.3845   -0.0027   -1.4704 C   0  0  1  0  0  0  0  0  0  0  0  0
    2.9321   -0.3840   -1.3604 C   0  0  0  0  0  0  0  0  0  0  0  0
    4.4802    1.3010   -0.9232 O   0  0  0  0  0  0  0  0  0  0  0  0
   -1.9763    2.5257    5.7537 H   0  0  0  0  0  0  0  0  0  0  0  0
   -2.8670    1.9153    4.3337 H   0  0  0  0  0  0  0  0  0  0  0  0
   -2.7937    0.9544    5.9096 H   0  0  0  0  0  0  0  0  0  0  0  0
   -0.9537    1.5297    2.7533 H   0  0  0  0  0  0  0  0  0  0  0  0
    1.1917   -0.0971    4.1641 H   0  0  0  0  0  0  0  0  0  0  0  0
   -0.0530   -1.5986    2.8793 H   0  0  0  0  0  0  0  0  0  0  0  0
    1.5713   -1.3879    2.1906 H   0  0  0  0  0  0  0  0  0  0  0  0
   -0.2952   -2.5234    0.4074 H   0  0  0  0  0  0  0  0  0  0  0  0
   -1.3338   -2.1867   -1.6468 H   0  0  0  0  0  0  0  0  0  0  0  0
   -0.4037   -0.6537   -1.8239 H   0  0  0  0  0  0  0  0  0  0  0  0
   -2.8004   -0.3478   -1.9997 H   0  0  0  0  0  0  0  0  0  0  0  0
   -2.1457    0.5855   -0.6275 H   0  0  0  0  0  0  0  0  0  0  0  0
   -2.8769   -1.3513    0.9116 H   0  0  0  0  0  0  0  0  0  0  0  0
   -2.8205   -3.1322   -0.6234 H   0  0  0  0  0  0  0  0  0  0  0  0
   -4.4610   -2.9736    0.0970 H   0  0  0  0  0  0  0  0  0  0  0  0
   -6.0611   -3.0569   -2.7885 H   0  0  0  0  0  0  0  0  0  0  0  0
   -4.6316   -3.0788   -3.7942 H   0  0  0  0  0  0  0  0  0  0  0  0
   -3.5807   -1.1056   -4.6636 H   0  0  0  0  0  0  0  0  0  0  0  0
   -4.1817    1.0049   -5.6856 H   0  0  0  0  0  0  0  0  0  0  0  0
   -6.2948    2.1863   -5.1359 H   0  0  0  0  0  0  0  0  0  0  0  0
   -7.8123    1.1848   -3.5093 H   0  0  0  0  0  0  0  0  0  0  0  0
   -7.2568   -0.9424   -2.4450 H   0  0  0  0  0  0  0  0  0  0  0  0
   -4.9960    0.0233   -0.8956 H   0  0  0  0  0  0  0  0  0  0  0  0
   -4.2652    0.6776    0.6278 H   0  0  0  0  0  0  0  0  0  0  0  0
   -6.1889    1.0370    1.4009 H   0  0  0  0  0  0  0  0  0  0  0  0
   -6.9323    0.4006   -0.0798 H   0  0  0  0  0  0  0  0  0  0  0  0
   -6.8258    0.3408    3.5297 H   0  0  0  0  0  0  0  0  0  0  0  0
   -8.6798   -0.4592    4.9964 H   0  0  0  0  0  0  0  0  0  0  0  0
  -10.5465   -1.6246    4.0403 H   0  0  0  0  0  0  0  0  0  0  0  0
  -10.6536   -2.0401    1.6073 H   0  0  0  0  0  0  0  0  0  0  0  0
   -8.7883   -1.2355    0.1435 H   0  0  0  0  0  0  0  0  0  0  0  0
    3.3678   -0.0309    2.5067 H   0  0  0  0  0  0  0  0  0  0  0  0
    3.5437    2.8248    1.3823 H   0  0  0  0  0  0  0  0  0  0  0  0
    4.6557    2.5773    3.6623 H   0  0  0  0  0  0  0  0  0  0  0  0
    5.5793    1.1729    2.9604 H   0  0  0  0  0  0  0  0  0  0  0  0
    5.7912    4.1228    2.1179 H   0  0  0  0  0  0  0  0  0  0  0  0
    6.4485    2.9338    0.1276 H   0  0  0  0  0  0  0  0  0  0  0  0
    7.8940    3.2734    1.0802 H   0  0  0  0  0  0  0  0  0  0  0  0
    7.2526    1.6321    1.1783 H   0  0  0  0  0  0  0  0  0  0  0  0
    7.9576    3.9500    3.2319 H   0  0  0  0  0  0  0  0  0  0  0  0
    6.6809    3.3127    4.4147 H   0  0  0  0  0  0  0  0  0  0  0  0
    7.6812    2.1807    3.4613 H   0  0  0  0  0  0  0  0  0  0  0  0
    4.9317   -1.8438   -0.4323 H   0  0  0  0  0  0  0  0  0  0  0  0
    7.3510   -0.0651   -0.5042 H   0  0  0  0  0  0  0  0  0  0  0  0
    7.2151   -1.7580   -0.9722 H   0  0  0  0  0  0  0  0  0  0  0  0
    7.8318   -0.4825   -2.9366 H   0  0  0  0  0  0  0  0  0  0  0  0
    6.4352    1.4342   -3.7365 H   0  0  0  0  0  0  0  0  0  0  0  0
    6.2104    1.5967   -1.9079 H   0  0  0  0  0  0  0  0  0  0  0  0
    4.0958    0.5349   -3.5582 H   0  0  0  0  0  0  0  0  0  0  0  0
    5.1481   -0.4059   -5.3699 H   0  0  0  0  0  0  0  0  0  0  0  0
    6.9174   -0.0954   -4.9870 H   0  0  0  0  0  0  0  0  0  0  0  0
    6.2533   -1.7995   -5.2777 H   0  0  0  0  0  0  0  0  0  0  0  0
    4.3311   -2.5609   -2.7036 H   0  0  0  0  0  0  0  0  0  0  0  0
    6.1285   -2.8108   -2.3319 H   0  0  0  0  0  0  0  0  0  0  0  0
    5.4809   -3.0128   -3.9619 H   0  0  0  0  0  0  0  0  0  0  0  0
    2.3800    0.0775   -2.1895 H   0  0  0  0  0  0  0  0  0  0  0  0
    2.5436    0.0647   -0.4168 H   0  0  0  0  0  0  0  0  0  0  0  0
    2.7709   -1.4743   -1.2504 H   0  0  0  0  0  0  0  0  0  0  0  0
  1  2  1  0
  2  3  2  0
  2  4  1  0
  4  5  1  0
  5  6  1  0
  6  7  1  0
  7  8  2  0
  7  9  1  0
  9 10  1  0
 10 11  1  0
 11 12  1  0
 12 13  1  0
 13 14  1  0
 14 15  1  0
 15 16  1  0
 16 17  2  0
 17 18  1  0
 18 19  2  0
 19 20  1  0
 20 21  2  0
 12 22  1  0
 22 23  1  0
 23 24  1  0
 24 25  1  0
 25 26  2  0
 26 27  1  0
 27 28  2  0
 28 29  1  0
 29 30  2  0
  5 31  1  0
 31 32  2  0
 31 33  1  0
 33 34  1  0
 34 35  1  0
 35 36  1  0
 36 37  1  0
 36 38  1  0
 34 39  1  0
 39 40  1  0
 40 41  1  0
 41 42  1  0
 42 43  1  0
 43 44  1  0
 44 45  1  0
 45 46  1  0
 46 47  1  0
 46 48  1  0
 45 49  1  0
 49 50  1  6
 49 51  1  0
 21 16  1  0
 30 25  1  0
 51 39  1  0
 49 41  1  0
 46 43  1  0
  1 52  1  0
  1 53  1  0
  1 54  1  0
  4 55  1  0
  5 56  1  1
  6 57  1  0
  6 58  1  0
  9 59  1  0
 10 60  1  0
 10 61  1  0
 11 62  1  0
 11 63  1  0
 12 64  1  0
 13 65  1  0
 13 66  1  0
 15 67  1  0
 15 68  1  0
 17 69  1  0
 18 70  1  0
 19 71  1  0
 20 72  1  0
 21 73  1  0
 22 74  1  0
 22 75  1  0
 24 76  1  0
 24 77  1  0
 26 78  1  0
 27 79  1  0
 28 80  1  0
 29 81  1  0
 30 82  1  0
 33 83  1  0
 34 84  1  6
 35 85  1  0
 35 86  1  0
 36 87  1  0
 37 88  1  0
 37 89  1  0
 37 90  1  0
 38 91  1  0
 38 92  1  0
 38 93  1  0
 41 94  1  1
 42 95  1  0
 42 96  1  0
 43 97  1  6
 44 98  1  0
 44 99  1  0
 45100  1  6
 47101  1  0
 47102  1  0
 47103  1  0
 48104  1  0
 48105  1  0
 48106  1  0
 50107  1  0
 50108  1  0
 50109  1  0
M  END
$$$$
