
     RDKit          3D

 62 66  0  0  0  0  0  0  0  0999 V2000
    1.4143    2.2280   -0.9129 C   0  0  0  0  0  0  0  0  0  0  0  0
    1.9755    1.3134    0.1548 C   0  0  0  0  0  0  0  0  0  0  0  0
    1.1996    1.6760    1.4405 C   0  0  0  0  0  0  0  0  0  0  0  0
    3.3889    1.7979    0.3993 C   0  0  0  0  0  0  0  0  0  0  0  0
    1.8210   -0.1038   -0.0940 C   0  0  0  0  0  0  0  0  0  0  0  0
    0.6188   -0.7683   -0.2426 C   0  0  0  0  0  0  0  0  0  0  0  0
   -0.7509   -0.2552   -0.1739 C   0  0  0  0  0  0  0  0  0  0  0  0
   -1.0204    0.7083   -0.8854 O   0  0  0  0  0  0  0  0  0  0  0  0
   -1.7606   -0.7988    0.6604 N   0  0  0  0  0  0  0  0  0  0  0  0
   -3.1006   -0.3549    0.8438 C   0  0  0  0  0  0  0  0  0  0  0  0
   -4.1720   -1.3473    0.9468 C   0  0  0  0  0  0  0  0  0  0  0  0
   -4.8630   -1.6762   -0.3653 C   0  0  0  0  0  0  0  0  0  0  0  0
   -5.3162   -0.4310   -1.0714 C   0  0  0  0  0  0  0  0  0  0  0  0
   -6.4007    0.1788   -0.2086 C   0  0  0  0  0  0  0  0  0  0  0  0
   -5.7449    0.5144    1.1201 C   0  0  0  0  0  0  0  0  0  0  0  0
   -5.2977   -0.7550    1.7911 C   0  0  0  0  0  0  0  0  0  0  0  0
   -4.6414    1.5172    0.9679 C   0  0  0  0  0  0  0  0  0  0  0  0
   -3.5408    0.8677    0.0740 C   0  0  0  0  0  0  0  0  0  0  0  0
   -4.2386    0.6129   -1.2084 C   0  0  0  0  0  0  0  0  0  0  0  0
    0.8789   -2.0999   -0.4692 C   0  0  0  0  0  0  0  0  0  0  0  0
    2.1893   -2.2284   -0.4564 N   0  0  0  0  0  0  0  0  0  0  0  0
    2.7576   -1.0271   -0.2308 N   0  0  0  0  0  0  0  0  0  0  0  0
    4.1891   -0.9799   -0.1948 C   0  0  0  0  0  0  0  0  0  0  0  0
    4.8559   -1.0645   -1.4148 C   0  0  0  0  0  0  0  0  0  0  0  0
    6.2110   -1.0293   -1.5046 C   0  0  0  0  0  0  0  0  0  0  0  0
    6.9669   -0.9050   -0.3602 C   0  0  0  0  0  0  0  0  0  0  0  0
    8.4105   -0.8521   -0.4345 C   0  0  0  0  0  0  0  0  0  0  0  0
    9.0935   -0.7342    0.6163 O   0  0  0  0  0  0  0  0  0  0  0  0
    9.1288   -0.9257   -1.6288 O   0  0  0  0  0  0  0  0  0  0  0  0
    6.3086   -0.8217    0.8531 C   0  0  0  0  0  0  0  0  0  0  0  0
    4.9282   -0.8580    0.9507 C   0  0  0  0  0  0  0  0  0  0  0  0
    2.1751    3.0448   -1.1471 H   0  0  0  0  0  0  0  0  0  0  0  0
    0.5532    2.8088   -0.5293 H   0  0  0  0  0  0  0  0  0  0  0  0
    1.2446    1.7276   -1.8877 H   0  0  0  0  0  0  0  0  0  0  0  0
    0.6857    0.7578    1.8083 H   0  0  0  0  0  0  0  0  0  0  0  0
    1.8542    2.0043    2.2468 H   0  0  0  0  0  0  0  0  0  0  0  0
    0.3925    2.4116    1.2393 H   0  0  0  0  0  0  0  0  0  0  0  0
    3.3892    2.9446    0.2979 H   0  0  0  0  0  0  0  0  0  0  0  0
    3.7304    1.6549    1.4423 H   0  0  0  0  0  0  0  0  0  0  0  0
    4.0931    1.4863   -0.3695 H   0  0  0  0  0  0  0  0  0  0  0  0
   -1.3851   -1.6577    1.1947 H   0  0  0  0  0  0  0  0  0  0  0  0
   -3.0053    0.1257    1.8879 H   0  0  0  0  0  0  0  0  0  0  0  0
   -3.8597   -2.2917    1.4353 H   0  0  0  0  0  0  0  0  0  0  0  0
   -4.3214   -2.3865   -0.9950 H   0  0  0  0  0  0  0  0  0  0  0  0
   -5.8038   -2.2091   -0.0727 H   0  0  0  0  0  0  0  0  0  0  0  0
   -5.6977   -0.7055   -2.0640 H   0  0  0  0  0  0  0  0  0  0  0  0
   -7.1653   -0.5888    0.0008 H   0  0  0  0  0  0  0  0  0  0  0  0
   -6.7928    1.0584   -0.7351 H   0  0  0  0  0  0  0  0  0  0  0  0
   -6.5339    0.9678    1.7555 H   0  0  0  0  0  0  0  0  0  0  0  0
   -6.1632   -1.4459    1.7486 H   0  0  0  0  0  0  0  0  0  0  0  0
   -4.9294   -0.6010    2.8041 H   0  0  0  0  0  0  0  0  0  0  0  0
   -4.2239    1.7145    1.9578 H   0  0  0  0  0  0  0  0  0  0  0  0
   -5.0668    2.4079    0.4556 H   0  0  0  0  0  0  0  0  0  0  0  0
   -2.7190    1.5799   -0.0036 H   0  0  0  0  0  0  0  0  0  0  0  0
   -3.5844    0.4847   -2.0958 H   0  0  0  0  0  0  0  0  0  0  0  0
   -4.8009    1.5657   -1.4528 H   0  0  0  0  0  0  0  0  0  0  0  0
    0.1855   -2.9311   -0.6315 H   0  0  0  0  0  0  0  0  0  0  0  0
    4.2886   -1.1629   -2.3469 H   0  0  0  0  0  0  0  0  0  0  0  0
    6.7194   -1.1009   -2.4711 H   0  0  0  0  0  0  0  0  0  0  0  0
    9.9270   -1.5473   -1.7164 H   0  0  0  0  0  0  0  0  0  0  0  0
    6.9080   -0.7253    1.7688 H   0  0  0  0  0  0  0  0  0  0  0  0
    4.4174   -0.7898    1.9079 H   0  0  0  0  0  0  0  0  0  0  0  0
  1  2  1  0
  2  3  1  0
  2  4  1  0
  2  5  1  0
  5  6  2  0
  6  7  1  0
  7  8  2  0
  7  9  1  0
  9 10  1  0
 10 11  1  0
 11 12  1  0
 12 13  1  0
 13 14  1  0
 14 15  1  0
 15 16  1  0
 15 17  1  0
 17 18  1  0
 18 19  1  0
  6 20  1  0
 20 21  2  0
 21 22  1  0
 22 23  1  0
 23 24  2  0
 24 25  1  0
 25 26  2  0
 26 27  1  0
 27 28  2  0
 27 29  1  0
 26 30  1  0
 30 31  2  0
 22  5  1  0
 31 23  1  0
 18 10  1  0
 16 11  1  0
 19 13  1  0
  1 32  1  0
  1 33  1  0
  1 34  1  0
  3 35  1  0
  3 36  1  0
  3 37  1  0
  4 38  1  0
  4 39  1  0
  4 40  1  0
  9 41  1  0
 10 42  1  0
 11 43  1  0
 12 44  1  0
 12 45  1  0
 13 46  1  0
 14 47  1  0
 14 48  1  0
 15 49  1  0
 16 50  1  0
 16 51  1  0
 17 52  1  0
 17 53  1  0
 18 54  1  0
 19 55  1  0
 19 56  1  0
 20 57  1  0
 24 58  1  0
 25 59  1  0
 29 60  1  0
 30 61  1  0
 31 62  1  0
M  END
$$$$
