
     RDKit          3D

 50 53  0  0  0  0  0  0  0  0999 V2000
    7.6599    1.4755    0.4833 N   0  0  0  0  0  0  0  0  0  0  0  0
    6.7844    0.3633    0.5142 C   0  0  0  0  0  0  0  0  0  0  0  0
    5.4695    0.5192    0.5008 N   0  0  0  0  0  0  0  0  0  0  0  0
    4.6020   -0.5065    0.5289 C   0  0  0  0  0  0  0  0  0  0  0  0
    3.1956   -0.3028    0.5143 N   0  0  0  0  0  0  0  0  0  0  0  0
    2.6997    1.0591    0.4768 C   0  0  0  0  0  0  0  0  0  0  0  0
    1.1883    0.9899    0.4643 C   0  0  0  0  0  0  0  0  0  0  0  0
    0.7752    0.2637   -0.7030 N   0  0  0  0  0  0  0  0  0  0  0  0
   -0.5998    0.0275   -0.9535 C   0  0  0  0  0  0  0  0  0  0  0  0
   -0.9900   -0.6528   -2.0672 N   0  0  0  0  0  0  0  0  0  0  0  0
   -2.2886   -0.8894   -2.3180 C   0  0  0  0  0  0  0  0  0  0  0  0
   -3.2944   -0.4646   -1.4755 C   0  0  0  0  0  0  0  0  0  0  0  0
   -4.6922   -0.7236   -1.7498 C   0  0  0  0  0  0  0  0  0  0  0  0
   -5.7323   -0.3582   -0.9894 N   0  0  0  0  0  0  0  0  0  0  0  0
   -6.8857   -0.7856   -1.5797 C   0  0  0  0  0  0  0  0  0  0  0  0
   -6.5067   -1.4315   -2.7399 C   0  0  0  0  0  0  0  0  0  0  0  0
   -5.1613   -1.3768   -2.8156 N   0  0  0  0  0  0  0  0  0  0  0  0
   -2.8891    0.2327   -0.3347 C   0  0  0  0  0  0  0  0  0  0  0  0
   -3.9116    0.7140    0.6104 C   0  0  0  0  0  0  0  0  0  0  0  0
   -4.3954    2.0032    0.5156 C   0  0  0  0  0  0  0  0  0  0  0  0
   -5.3510    2.4883    1.3843 C   0  0  0  0  0  0  0  0  0  0  0  0
   -5.8051    1.6241    2.3577 C   0  0  0  0  0  0  0  0  0  0  0  0
   -7.0042    2.1690    3.4808 Cl  0  0  0  0  0  0  0  0  0  0  0  0
   -5.3216    0.3203    2.4603 C   0  0  0  0  0  0  0  0  0  0  0  0
   -4.3664   -0.1504    1.5847 C   0  0  0  0  0  0  0  0  0  0  0  0
   -3.7360   -1.7818    1.6836 Cl  0  0  0  0  0  0  0  0  0  0  0  0
   -1.5776    0.4407   -0.1344 N   0  0  0  0  0  0  0  0  0  0  0  0
    5.1599   -1.7748    0.5740 C   0  0  0  0  0  0  0  0  0  0  0  0
    6.5178   -1.9790    0.5893 C   0  0  0  0  0  0  0  0  0  0  0  0
    7.3627   -0.8932    0.5591 C   0  0  0  0  0  0  0  0  0  0  0  0
    8.7859   -1.0560    0.5746 N   0  0  0  0  0  4  0  0  0  0  0  0
    9.4651   -0.1733    1.1257 O   0  0  0  0  0  0  0  0  0  0  0  0
    9.4297   -2.1283    0.0161 O   0  0  0  0  0  1  0  0  0  0  0  0
    7.7927    2.0149   -0.3928 H   0  0  0  0  0  0  0  0  0  0  0  0
    8.1873    1.7783    1.3273 H   0  0  0  0  0  0  0  0  0  0  0  0
    2.5786   -1.1437    0.5311 H   0  0  0  0  0  0  0  0  0  0  0  0
    3.0812    1.6596    1.3270 H   0  0  0  0  0  0  0  0  0  0  0  0
    3.0092    1.4839   -0.4985 H   0  0  0  0  0  0  0  0  0  0  0  0
    0.8863    0.4881    1.4113 H   0  0  0  0  0  0  0  0  0  0  0  0
    0.7795    2.0432    0.4374 H   0  0  0  0  0  0  0  0  0  0  0  0
    1.4795   -0.0910   -1.3677 H   0  0  0  0  0  0  0  0  0  0  0  0
   -2.5850   -1.4304   -3.2055 H   0  0  0  0  0  0  0  0  0  0  0  0
   -7.8930   -0.6503   -1.2194 H   0  0  0  0  0  0  0  0  0  0  0  0
   -7.1925   -1.8917   -3.4456 H   0  0  0  0  0  0  0  0  0  0  0  0
   -4.5606   -1.7698   -3.5684 H   0  0  0  0  0  0  0  0  0  0  0  0
   -4.0462    2.7000   -0.2498 H   0  0  0  0  0  0  0  0  0  0  0  0
   -5.7397    3.4952    1.3230 H   0  0  0  0  0  0  0  0  0  0  0  0
   -5.6823   -0.3610    3.2307 H   0  0  0  0  0  0  0  0  0  0  0  0
    4.4381   -2.6007    0.5968 H   0  0  0  0  0  0  0  0  0  0  0  0
    6.8802   -2.9868    0.6247 H   0  0  0  0  0  0  0  0  0  0  0  0
  1  2  1  0
  2  3  2  0
  3  4  1  0
  4  5  1  0
  5  6  1  0
  6  7  1  0
  7  8  1  0
  8  9  1  0
  9 10  2  0
 10 11  1  0
 11 12  2  0
 12 13  1  0
 13 14  2  0
 14 15  1  0
 15 16  2  0
 16 17  1  0
 12 18  1  0
 18 19  1  0
 19 20  2  0
 20 21  1  0
 21 22  2  0
 22 23  1  0
 22 24  1  0
 24 25  2  0
 25 26  1  0
 18 27  2  0
  4 28  2  0
 28 29  1  0
 29 30  2  0
 30 31  1  0
 31 32  2  0
 31 33  1  0
 30  2  1  0
 27  9  1  0
 17 13  1  0
 25 19  1  0
  1 34  1  0
  1 35  1  0
  5 36  1  0
  6 37  1  0
  6 38  1  0
  7 39  1  0
  7 40  1  0
  8 41  1  0
 11 42  1  0
 15 43  1  0
 16 44  1  0
 17 45  1  0
 20 46  1  0
 21 47  1  0
 24 48  1  0
 28 49  1  0
 29 50  1  0
M  CHG  2  31   1  33  -1
M  END
$$$$
