
     RDKit          3D

 86 91  0  0  0  0  0  0  0  0999 V2000
  -11.0435   -2.2449   -0.6230 C   0  0  0  0  0  0  0  0  0  0  0  0
   -9.7948   -1.4676   -0.4394 C   0  0  0  0  0  0  0  0  0  0  0  0
   -9.6070   -0.2667   -1.1266 C   0  0  0  0  0  0  0  0  0  0  0  0
   -8.4488    0.4501   -0.9534 C   0  0  0  0  0  0  0  0  0  0  0  0
   -7.4427    0.0239   -0.1115 C   0  0  0  0  0  0  0  0  0  0  0  0
   -7.5984   -1.1518    0.5772 C   0  0  0  0  0  0  0  0  0  0  0  0
   -8.7729   -1.8636    0.3917 C   0  0  0  0  0  0  0  0  0  0  0  0
   -8.9462   -3.1432    1.1392 C   0  0  0  0  0  0  0  0  0  0  0  0
   -6.2986    0.6925    0.0886 N   0  0  0  0  0  0  0  0  0  0  0  0
   -5.2067    0.3153    0.9313 C   0  0  0  0  0  0  0  0  0  0  0  0
   -4.1557   -0.5022    0.2140 C   0  0  2  0  0  0  0  0  0  0  0  0
   -4.6249   -1.6771   -0.3087 O   0  0  0  0  0  0  0  0  0  0  0  0
   -2.9473   -0.6641    1.1259 C   0  0  2  0  0  0  0  0  0  0  0  0
   -2.6469    0.6556    1.5390 O   0  0  0  0  0  0  0  0  0  0  0  0
   -1.8213   -1.1453    0.2366 C   0  0  2  0  0  0  0  0  0  0  0  0
   -2.1240   -2.4453   -0.1636 O   0  0  0  0  0  0  0  0  0  0  0  0
   -0.5042   -1.1846    0.9668 C   0  0  0  0  0  0  0  0  0  0  0  0
   -0.1032    0.0631    1.4124 O   0  0  0  0  0  0  0  0  0  0  0  0
    1.3698    0.0942    2.1877 P   0  0  2  0  0  5  0  0  0  0  0  0
    1.3042    1.2523    3.4196 O   0  0  0  0  0  0  0  0  0  0  0  0
    2.4953    0.5544    1.2598 O   0  0  0  0  0  0  0  0  0  0  0  0
    1.8681   -1.4172    2.7681 O   0  0  0  0  0  0  0  0  0  0  0  0
    3.5463   -1.4882    2.9397 P   0  0  1  0  0  5  0  0  0  0  0  0
    4.0065   -1.0529    4.5272 O   0  0  0  0  0  0  0  0  0  0  0  0
    3.9542   -2.9331    2.7609 O   0  0  0  0  0  0  0  0  0  0  0  0
    4.3487   -0.5724    1.7997 O   0  0  0  0  0  0  0  0  0  0  0  0
    4.7153   -1.2343    0.6551 C   0  0  0  0  0  0  0  0  0  0  0  0
    5.4349   -0.3304   -0.3056 C   0  0  1  0  0  0  0  0  0  0  0  0
    6.6013    0.2076    0.2354 O   0  0  0  0  0  0  0  0  0  0  0  0
    7.0369    0.9384   -0.8794 C   0  0  2  0  0  0  0  0  0  0  0  0
    6.9328   -0.0010   -2.0578 C   0  0  2  0  0  0  0  0  0  0  0  0
    6.2130    0.6144   -3.0929 O   0  0  0  0  0  0  0  0  0  0  0  0
    6.0060   -1.0803   -1.4867 C   0  0  2  0  0  0  0  0  0  0  0  0
    5.0247   -1.4600   -2.3688 O   0  0  0  0  0  0  0  0  0  0  0  0
    8.3516    1.5025   -0.7056 N   0  0  0  0  0  0  0  0  0  0  0  0
    8.6779    2.7174   -1.1548 C   0  0  0  0  0  0  0  0  0  0  0  0
    9.9716    2.9473   -0.8345 N   0  0  0  0  0  0  0  0  0  0  0  0
   10.4508    1.8726   -0.1846 C   0  0  0  0  0  0  0  0  0  0  0  0
    9.4098    0.9699   -0.1136 C   0  0  0  0  0  0  0  0  0  0  0  0
    9.6488   -0.1965    0.4995 N   0  0  0  0  0  0  0  0  0  0  0  0
   10.8829   -0.4397    1.0170 C   0  0  0  0  0  0  0  0  0  0  0  0
   11.8830    0.4546    0.9364 N   0  0  0  0  0  0  0  0  0  0  0  0
   11.7225    1.6644    0.3293 C   0  0  0  0  0  0  0  0  0  0  0  0
   12.7572    2.6271    0.2287 N   0  0  0  0  0  0  0  0  0  0  0  0
   -6.1988    1.8567   -0.6190 C   0  0  0  0  0  0  0  0  0  0  0  0
   -5.0823    2.5922   -0.4785 N   0  0  0  0  0  0  0  0  0  0  0  0
   -4.9447    3.7412   -1.1559 C   0  0  0  0  0  0  0  0  0  0  0  0
   -3.8828    4.3988   -0.9948 O   0  0  0  0  0  0  0  0  0  0  0  0
   -5.8653    4.2385   -1.9962 N   0  0  0  0  0  0  0  0  0  0  0  0
   -7.0099    3.5650   -2.1930 C   0  0  0  0  0  0  0  0  0  0  0  0
   -7.9174    3.9678   -2.9640 O   0  0  0  0  0  0  0  0  0  0  0  0
   -7.2163    2.3757   -1.5276 C   0  0  0  0  0  0  0  0  0  0  0  0
   -8.3284    1.6031   -1.6422 N   0  0  0  0  0  0  0  0  0  0  0  0
  -11.6202   -1.7982   -1.4555 H   0  0  0  0  0  0  0  0  0  0  0  0
  -11.6834   -2.2456    0.2718 H   0  0  0  0  0  0  0  0  0  0  0  0
  -10.8151   -3.2873   -0.9650 H   0  0  0  0  0  0  0  0  0  0  0  0
  -10.4018    0.0645   -1.7881 H   0  0  0  0  0  0  0  0  0  0  0  0
   -6.8593   -1.5245    1.2398 H   0  0  0  0  0  0  0  0  0  0  0  0
   -9.6153   -2.9735    2.0112 H   0  0  0  0  0  0  0  0  0  0  0  0
   -7.9561   -3.5204    1.4622 H   0  0  0  0  0  0  0  0  0  0  0  0
   -9.4644   -3.8456    0.4834 H   0  0  0  0  0  0  0  0  0  0  0  0
   -5.4841   -0.1807    1.8744 H   0  0  0  0  0  0  0  0  0  0  0  0
   -4.6758    1.2604    1.2593 H   0  0  0  0  0  0  0  0  0  0  0  0
   -3.7571    0.0866   -0.6645 H   0  0  0  0  0  0  0  0  0  0  0  0
   -4.9747   -1.6186   -1.2198 H   0  0  0  0  0  0  0  0  0  0  0  0
   -3.1054   -1.3490    1.9591 H   0  0  0  0  0  0  0  0  0  0  0  0
   -3.0401    0.7469    2.4485 H   0  0  0  0  0  0  0  0  0  0  0  0
   -1.8033   -0.4364   -0.6228 H   0  0  0  0  0  0  0  0  0  0  0  0
   -1.3178   -2.9581   -0.3843 H   0  0  0  0  0  0  0  0  0  0  0  0
   -0.6558   -1.8009    1.8860 H   0  0  0  0  0  0  0  0  0  0  0  0
    0.2984   -1.6461    0.3897 H   0  0  0  0  0  0  0  0  0  0  0  0
    2.2294    1.5396    3.6338 H   0  0  0  0  0  0  0  0  0  0  0  0
    3.3839   -1.4878    5.1329 H   0  0  0  0  0  0  0  0  0  0  0  0
    5.3337   -2.0870    0.9336 H   0  0  0  0  0  0  0  0  0  0  0  0
    3.7955   -1.6247    0.1745 H   0  0  0  0  0  0  0  0  0  0  0  0
    4.8326    0.4990   -0.6703 H   0  0  0  0  0  0  0  0  0  0  0  0
    6.2552    1.7397   -1.0042 H   0  0  0  0  0  0  0  0  0  0  0  0
    7.8861   -0.4092   -2.4015 H   0  0  0  0  0  0  0  0  0  0  0  0
    5.2800    0.6830   -2.7700 H   0  0  0  0  0  0  0  0  0  0  0  0
    6.6628   -1.9125   -1.1703 H   0  0  0  0  0  0  0  0  0  0  0  0
    5.3861   -1.9971   -3.0937 H   0  0  0  0  0  0  0  0  0  0  0  0
    8.1338    3.4888   -1.6871 H   0  0  0  0  0  0  0  0  0  0  0  0
   11.0424   -1.4025    1.5104 H   0  0  0  0  0  0  0  0  0  0  0  0
   12.9040    3.5181    0.7842 H   0  0  0  0  0  0  0  0  0  0  0  0
   13.4141    2.3495   -0.5068 H   0  0  0  0  0  0  0  0  0  0  0  0
   -5.6893    5.1355   -2.4868 H   0  0  0  0  0  0  0  0  0  0  0  0
  1  2  1  0
  2  3  2  0
  3  4  1  0
  4  5  2  0
  5  6  1  0
  6  7  2  0
  7  8  1  0
  5  9  1  0
  9 10  1  0
 10 11  1  0
 11 12  1  0
 11 13  1  0
 13 14  1  0
 13 15  1  0
 15 16  1  0
 15 17  1  0
 17 18  1  0
 19 18  1  6
 19 20  1  0
 19 21  2  0
 19 22  1  0
 23 22  1  1
 23 24  1  0
 23 25  2  0
 23 26  1  0
 26 27  1  0
 27 28  1  0
 28 29  1  0
 29 30  1  0
 30 31  1  0
 31 32  1  0
 31 33  1  0
 33 34  1  0
 30 35  1  0
 35 36  1  0
 36 37  2  0
 37 38  1  0
 38 39  2  0
 39 40  1  0
 40 41  2  0
 41 42  1  0
 42 43  2  0
 43 44  1  0
  9 45  1  0
 45 46  2  0
 46 47  1  0
 47 48  2  0
 47 49  1  0
 49 50  1  0
 50 51  2  0
 50 52  1  0
 52 53  2  0
  7  2  1  0
 33 28  1  0
 39 35  1  0
 52 45  1  0
 53  4  1  0
 43 38  1  0
  1 54  1  0
  1 55  1  0
  1 56  1  0
  3 57  1  0
  6 58  1  0
  8 59  1  0
  8 60  1  0
  8 61  1  0
 10 62  1  0
 10 63  1  0
 11 64  1  6
 12 65  1  0
 13 66  1  1
 14 67  1  0
 15 68  1  6
 16 69  1  0
 17 70  1  0
 17 71  1  0
 20 72  1  0
 24 73  1  0
 27 74  1  0
 27 75  1  0
 28 76  1  6
 30 77  1  6
 31 78  1  6
 32 79  1  0
 33 80  1  1
 34 81  1  0
 36 82  1  0
 41 83  1  0
 44 84  1  0
 44 85  1  0
 49 86  1  0
M  END
$$$$
