
     RDKit          3D

 41 43  0  0  0  0  0  0  0  0999 V2000
    1.4560   -2.7005    2.8124 C   0  0  0  0  0  0  0  0  0  0  0  0
    1.4160   -1.7180    1.8030 O   0  0  0  0  0  0  0  0  0  0  0  0
    0.2082   -1.2203    1.3137 C   0  0  0  0  0  0  0  0  0  0  0  0
   -0.9396   -1.7482    1.8772 C   0  0  0  0  0  0  0  0  0  0  0  0
   -2.1598   -1.2975    1.4365 C   0  0  0  0  0  0  0  0  0  0  0  0
   -2.2497   -0.3298    0.4439 C   0  0  0  0  0  0  0  0  0  0  0  0
   -3.5842    0.1286   -0.0028 C   0  0  0  0  0  0  0  0  0  0  0  0
   -3.7884    1.6002    0.1924 C   0  0  0  0  0  0  0  0  0  0  0  0
   -4.1757    2.1536   -1.0743 N   0  0  0  0  0  0  0  0  0  0  0  0
   -4.5655    1.0586   -1.8924 C   0  0  0  0  0  0  0  0  0  0  0  0
   -5.4144    1.0890   -2.8413 O   0  0  0  0  0  0  0  0  0  0  0  0
   -3.8195   -0.1704   -1.4730 C   0  0  0  0  0  0  0  0  0  0  0  0
   -1.0985    0.1672   -0.0880 C   0  0  0  0  0  0  0  0  0  0  0  0
    0.1778   -0.2653    0.3330 C   0  0  0  0  0  0  0  0  0  0  0  0
    1.2849    0.2690   -0.2363 O   0  0  0  0  0  0  0  0  0  0  0  0
    2.6334    0.0896   -0.0767 C   0  0  0  0  0  0  0  0  0  0  0  0
    3.1810   -0.3819   -1.4425 C   0  0  0  0  0  0  0  0  0  0  0  0
    3.8258    0.8285   -2.0666 C   0  0  0  0  0  0  0  0  0  0  0  0
    4.5024    1.4475   -0.8508 C   0  0  0  0  0  0  0  0  0  0  0  0
    3.3806    1.4013    0.1585 C   0  0  0  0  0  0  0  0  0  0  0  0
    0.9620   -3.6368    2.4738 H   0  0  0  0  0  0  0  0  0  0  0  0
    2.4793   -2.8694    3.1948 H   0  0  0  0  0  0  0  0  0  0  0  0
    0.8626   -2.3769    3.7142 H   0  0  0  0  0  0  0  0  0  0  0  0
   -0.8794   -2.5160    2.6648 H   0  0  0  0  0  0  0  0  0  0  0  0
   -3.0459   -1.7177    1.8845 H   0  0  0  0  0  0  0  0  0  0  0  0
   -4.3951   -0.3926    0.5482 H   0  0  0  0  0  0  0  0  0  0  0  0
   -2.8474    2.0838    0.5785 H   0  0  0  0  0  0  0  0  0  0  0  0
   -4.5564    1.8195    0.9717 H   0  0  0  0  0  0  0  0  0  0  0  0
   -4.1870    3.1487   -1.3827 H   0  0  0  0  0  0  0  0  0  0  0  0
   -2.8560   -0.1810   -2.0123 H   0  0  0  0  0  0  0  0  0  0  0  0
   -4.3811   -1.0899   -1.6383 H   0  0  0  0  0  0  0  0  0  0  0  0
   -1.1123    0.9273   -0.8686 H   0  0  0  0  0  0  0  0  0  0  0  0
    2.9693   -0.6406    0.6666 H   0  0  0  0  0  0  0  0  0  0  0  0
    3.9479   -1.1554   -1.3015 H   0  0  0  0  0  0  0  0  0  0  0  0
    2.3709   -0.7882   -2.0700 H   0  0  0  0  0  0  0  0  0  0  0  0
    3.1066    1.5241   -2.5235 H   0  0  0  0  0  0  0  0  0  0  0  0
    4.6212    0.5751   -2.7713 H   0  0  0  0  0  0  0  0  0  0  0  0
    5.3081    0.7490   -0.5595 H   0  0  0  0  0  0  0  0  0  0  0  0
    4.8518    2.4570   -1.0587 H   0  0  0  0  0  0  0  0  0  0  0  0
    3.8088    1.4434    1.1872 H   0  0  0  0  0  0  0  0  0  0  0  0
    2.7011    2.2353   -0.0238 H   0  0  0  0  0  0  0  0  0  0  0  0
  1  2  1  0
  2  3  1  0
  3  4  2  0
  4  5  1  0
  5  6  2  0
  6  7  1  0
  7  8  1  0
  8  9  1  0
  9 10  1  0
 10 11  2  0
 10 12  1  0
  6 13  1  0
 13 14  2  0
 14 15  1  0
 15 16  1  0
 16 17  1  0
 17 18  1  0
 18 19  1  0
 19 20  1  0
 14  3  1  0
 20 16  1  0
 12  7  1  0
  1 21  1  0
  1 22  1  0
  1 23  1  0
  4 24  1  0
  5 25  1  0
  7 26  1  0
  8 27  1  0
  8 28  1  0
  9 29  1  0
 12 30  1  0
 12 31  1  0
 13 32  1  0
 16 33  1  0
 17 34  1  0
 17 35  1  0
 18 36  1  0
 18 37  1  0
 19 38  1  0
 19 39  1  0
 20 40  1  0
 20 41  1  0
M  END
$$$$
