
     RDKit          3D

 47 49  0  0  0  0  0  0  0  0999 V2000
   -2.9972    0.0517    2.5550 C   0  0  0  0  0  0  0  0  0  0  0  0
   -3.2399    0.4441    1.0756 C   0  0  0  0  0  0  0  0  0  0  0  0
   -2.8941   -0.6589    0.1855 C   0  0  0  0  0  0  0  0  0  0  0  0
   -3.9346   -1.5369   -0.1855 C   0  0  0  0  0  0  0  0  0  0  0  0
   -3.6809   -2.6672   -0.9435 C   0  0  0  0  0  0  0  0  0  0  0  0
   -4.6996   -3.4795   -1.2769 F   0  0  0  0  0  0  0  0  0  0  0  0
   -2.3884   -2.9316   -1.3379 C   0  0  0  0  0  0  0  0  0  0  0  0
   -2.1681   -4.0967   -2.1079 N   0  0  0  0  0  0  0  0  0  0  0  0
   -1.3832   -2.0607   -0.9675 C   0  0  0  0  0  0  0  0  0  0  0  0
   -0.0608   -2.0486   -1.1919 N   0  0  0  0  0  0  0  0  0  0  0  0
    0.5237   -0.9803   -0.6264 C   0  0  0  0  0  0  0  0  0  0  0  0
    1.9469   -0.6411   -0.6655 C   0  0  0  0  0  0  0  0  0  0  0  0
    2.7259   -0.5057   -1.7941 C   0  0  0  0  0  0  0  0  0  0  0  0
    3.9937   -0.1831   -1.3816 C   0  0  0  0  0  0  0  0  0  0  0  0
    3.9359   -0.1339    0.0031 C   0  0  0  0  0  0  0  0  0  0  0  0
    5.2910    0.2412    1.1035 P   0  0  0  0  0  5  0  0  0  0  0  0
    4.8175    1.2445    2.1333 O   0  0  0  0  0  0  0  0  0  0  0  0
    6.5636    0.9261    0.1960 O   0  0  0  0  0  0  0  0  0  0  0  0
    5.8808   -1.1636    1.8362 O   0  0  0  0  0  0  0  0  0  0  0  0
    2.7168   -0.4100    0.3609 O   0  0  0  0  0  0  0  0  0  0  0  0
   -0.4698   -0.2546    0.0008 N   0  0  0  0  0  0  0  0  0  0  0  0
   -0.1837    0.9491    0.6835 C   0  0  0  0  0  0  0  0  0  0  0  0
   -0.0861    2.1494   -0.2615 C   0  0  0  0  0  0  0  0  0  0  0  0
   -1.2640    2.4705   -1.0650 C   0  0  0  0  0  0  0  0  0  0  0  0
    0.2909    3.3787    0.5716 C   0  0  0  0  0  0  0  0  0  0  0  0
   -1.6229   -0.9127   -0.2031 C   0  0  0  0  0  0  0  0  0  0  0  0
   -2.8355    0.9464    3.1681 H   0  0  0  0  0  0  0  0  0  0  0  0
   -3.8133   -0.6021    2.9288 H   0  0  0  0  0  0  0  0  0  0  0  0
   -2.0604   -0.5502    2.5943 H   0  0  0  0  0  0  0  0  0  0  0  0
   -4.3496    0.5329    1.0625 H   0  0  0  0  0  0  0  0  0  0  0  0
   -2.9421    1.4419    0.8543 H   0  0  0  0  0  0  0  0  0  0  0  0
   -4.9506   -1.3341    0.1219 H   0  0  0  0  0  0  0  0  0  0  0  0
   -2.3872   -4.1472   -3.1391 H   0  0  0  0  0  0  0  0  0  0  0  0
   -1.7737   -4.9871   -1.7089 H   0  0  0  0  0  0  0  0  0  0  0  0
    2.4512   -0.6189   -2.8347 H   0  0  0  0  0  0  0  0  0  0  0  0
    4.8520   -0.0067   -2.0107 H   0  0  0  0  0  0  0  0  0  0  0  0
    7.2737    1.2641    0.7728 H   0  0  0  0  0  0  0  0  0  0  0  0
    5.5288   -1.9302    1.2918 H   0  0  0  0  0  0  0  0  0  0  0  0
   -0.6508    1.1914    1.6237 H   0  0  0  0  0  0  0  0  0  0  0  0
    0.8916    0.8727    1.0309 H   0  0  0  0  0  0  0  0  0  0  0  0
    0.8081    1.9200   -0.9217 H   0  0  0  0  0  0  0  0  0  0  0  0
   -1.8533    1.5683   -1.3506 H   0  0  0  0  0  0  0  0  0  0  0  0
   -0.9514    3.0070   -1.9809 H   0  0  0  0  0  0  0  0  0  0  0  0
   -1.9294    3.1599   -0.4959 H   0  0  0  0  0  0  0  0  0  0  0  0
   -0.3358    4.2588    0.2899 H   0  0  0  0  0  0  0  0  0  0  0  0
    1.3317    3.6695    0.3803 H   0  0  0  0  0  0  0  0  0  0  0  0
    0.0825    3.1535    1.6268 H   0  0  0  0  0  0  0  0  0  0  0  0
  1  2  1  0
  2  3  1  0
  3  4  2  0
  4  5  1  0
  5  6  1  0
  5  7  2  0
  7  8  1  0
  7  9  1  0
  9 10  1  0
 10 11  2  0
 11 12  1  0
 12 13  2  0
 13 14  1  0
 14 15  2  0
 15 16  1  0
 16 17  2  0
 16 18  1  0
 16 19  1  0
 15 20  1  0
 11 21  1  0
 21 22  1  0
 22 23  1  0
 23 24  1  0
 23 25  1  0
 21 26  1  0
 26  3  1  0
 26  9  2  0
 20 12  1  0
  1 27  1  0
  1 28  1  0
  1 29  1  0
  2 30  1  0
  2 31  1  0
  4 32  1  0
  8 33  1  0
  8 34  1  0
 13 35  1  0
 14 36  1  0
 18 37  1  0
 19 38  1  0
 22 39  1  0
 22 40  1  0
 23 41  1  0
 24 42  1  0
 24 43  1  0
 24 44  1  0
 25 45  1  0
 25 46  1  0
 25 47  1  0
M  END
$$$$
