
     RDKit          3D

 14 13  0  0  0  0  0  0  0  0999 V2000
    2.2795    0.7145    0.2636 C   0  0  0  0  0  0  0  0  0  0  0  0
    1.4018   -0.5261    0.3448 C   0  0  0  0  0  0  0  0  0  0  0  0
   -0.3001   -0.2041    1.1760 Se  0  0  0  0  0  2  0  0  0  0  0  0
   -1.7146    0.0335   -0.1173 C   0  0  0  0  0  0  0  0  0  0  0  0
   -2.7864   -0.9041   -0.1925 N   0  0  0  0  0  0  0  0  0  0  0  0
   -1.8919    0.9637   -1.0082 N   0  0  0  0  0  0  0  0  0  0  0  0
    1.9036    1.4415   -0.4702 H   0  0  0  0  0  0  0  0  0  0  0  0
    2.3564    1.1324    1.2960 H   0  0  0  0  0  0  0  0  0  0  0  0
    3.2956    0.3349   -0.0381 H   0  0  0  0  0  0  0  0  0  0  0  0
    2.0253   -1.2601    0.9275 H   0  0  0  0  0  0  0  0  0  0  0  0
    1.3298   -0.9597   -0.6658 H   0  0  0  0  0  0  0  0  0  0  0  0
   -2.9297   -1.9438   -0.3272 H   0  0  0  0  0  0  0  0  0  0  0  0
   -3.7693   -0.5860   -0.1009 H   0  0  0  0  0  0  0  0  0  0  0  0
   -1.2003    1.7635   -1.1174 H   0  0  0  0  0  0  0  0  0  0  0  0
  1  2  1  0
  2  3  1  0
  3  4  1  0
  4  5  1  0
  4  6  2  3
  1  7  1  0
  1  8  1  0
  1  9  1  0
  2 10  1  0
  2 11  1  0
  5 12  1  0
  5 13  1  0
  6 14  1  0
M  END
$$$$
