
     RDKit          3D

 58 61  0  0  0  0  0  0  0  0999 V2000
    6.8881    2.2982   -0.4843 C   0  0  0  0  0  0  0  0  0  0  0  0
    6.1829    2.2177   -1.6263 O   0  0  0  0  0  0  0  0  0  0  0  0
    5.6844    1.0721   -2.1046 C   0  0  0  0  0  0  0  0  0  0  0  0
    4.6607    0.3257   -1.2681 C   0  0  2  0  0  0  0  0  0  0  0  0
    5.1254   -0.0898    0.0748 C   0  0  0  0  0  0  0  0  0  0  0  0
    4.6521   -1.5134    0.2404 C   0  0  0  0  0  0  0  0  0  0  0  0
    4.6407   -1.9636   -1.2258 C   0  0  0  0  0  0  0  0  0  0  0  0
    4.2031   -0.8359   -1.9385 N   0  0  0  0  0  0  0  0  0  0  0  0
    2.6037   -0.8288   -2.4879 S   0  0  0  0  0  6  0  0  0  0  0  0
    2.3919   -2.0378   -3.3774 O   0  0  0  0  0  0  0  0  0  0  0  0
    2.2771    0.3840   -3.3185 O   0  0  0  0  0  0  0  0  0  0  0  0
    1.4089   -0.9141   -1.2014 C   0  0  0  0  0  0  0  0  0  0  0  0
    0.9257    0.2352   -0.6326 C   0  0  0  0  0  0  0  0  0  0  0  0
   -0.0120    0.1657    0.3605 C   0  0  0  0  0  0  0  0  0  0  0  0
   -0.4851   -1.0535    0.8045 C   0  0  0  0  0  0  0  0  0  0  0  0
    0.0182   -2.2057    0.2146 C   0  0  0  0  0  0  0  0  0  0  0  0
    0.9537   -2.1303   -0.7755 C   0  0  0  0  0  0  0  0  0  0  0  0
   -0.6303   -3.3446    0.8453 C   0  0  0  0  0  0  0  0  0  0  0  0
   -0.4329   -4.5623    0.5764 O   0  0  0  0  0  0  0  0  0  0  0  0
   -1.5473   -2.8246    1.8419 C   0  0  0  0  0  0  0  0  0  0  0  0
   -2.2997   -3.4985    2.6053 O   0  0  0  0  0  0  0  0  0  0  0  0
   -1.4278   -1.3943    1.7856 N   0  0  0  0  0  0  0  0  0  0  0  0
   -2.1832   -0.4641    2.6262 C   0  0  0  0  0  0  0  0  0  0  0  0
   -3.4751   -0.1155    1.9460 C   0  0  0  0  0  0  0  0  0  0  0  0
   -4.5808   -0.8775    2.1793 C   0  0  0  0  0  0  0  0  0  0  0  0
   -5.7708   -0.6132    1.5942 C   0  0  0  0  0  0  0  0  0  0  0  0
   -5.9160    0.4679    0.7135 C   0  0  0  0  0  0  0  0  0  0  0  0
   -7.1512    0.6784    0.1511 O   0  0  0  0  0  0  0  0  0  0  0  0
   -7.5867    1.6586   -0.7045 C   0  0  0  0  0  0  0  0  0  0  0  0
   -7.5720    3.0459   -0.1196 C   0  0  0  0  0  0  0  0  0  0  0  0
   -8.7638    3.0352    1.4372 Br  0  0  0  0  0  0  0  0  0  0  0  0
   -4.7964    1.2258    0.4865 C   0  0  0  0  0  0  0  0  0  0  0  0
   -3.5780    0.9452    1.0941 C   0  0  0  0  0  0  0  0  0  0  0  0
    7.2256    3.3917   -0.3633 H   0  0  0  0  0  0  0  0  0  0  0  0
    6.2435    2.1774    0.4378 H   0  0  0  0  0  0  0  0  0  0  0  0
    7.8047    1.6899   -0.4514 H   0  0  0  0  0  0  0  0  0  0  0  0
    5.1157    1.3278   -3.0584 H   0  0  0  0  0  0  0  0  0  0  0  0
    6.4533    0.3450   -2.4786 H   0  0  0  0  0  0  0  0  0  0  0  0
    3.7694    1.0202   -1.0792 H   0  0  0  0  0  0  0  0  0  0  0  0
    6.2458   -0.1507    0.1283 H   0  0  0  0  0  0  0  0  0  0  0  0
    4.7163    0.5496    0.9031 H   0  0  0  0  0  0  0  0  0  0  0  0
    3.6040   -1.4785    0.6132 H   0  0  0  0  0  0  0  0  0  0  0  0
    5.3095   -2.1352    0.8653 H   0  0  0  0  0  0  0  0  0  0  0  0
    5.7189   -2.1631   -1.4899 H   0  0  0  0  0  0  0  0  0  0  0  0
    4.0270   -2.8718   -1.3114 H   0  0  0  0  0  0  0  0  0  0  0  0
    1.3078    1.1973   -0.9920 H   0  0  0  0  0  0  0  0  0  0  0  0
   -0.4029    1.0748    0.8229 H   0  0  0  0  0  0  0  0  0  0  0  0
    1.3226   -3.0340   -1.2096 H   0  0  0  0  0  0  0  0  0  0  0  0
   -1.6236    0.4771    2.7204 H   0  0  0  0  0  0  0  0  0  0  0  0
   -2.3942   -0.9382    3.6047 H   0  0  0  0  0  0  0  0  0  0  0  0
   -4.4706   -1.7248    2.8676 H   0  0  0  0  0  0  0  0  0  0  0  0
   -6.6497   -1.2330    1.7913 H   0  0  0  0  0  0  0  0  0  0  0  0
   -6.9195    1.6908   -1.6267 H   0  0  0  0  0  0  0  0  0  0  0  0
   -8.6245    1.3934   -1.0434 H   0  0  0  0  0  0  0  0  0  0  0  0
   -7.9785    3.7801   -0.8669 H   0  0  0  0  0  0  0  0  0  0  0  0
   -6.6147    3.3752    0.2469 H   0  0  0  0  0  0  0  0  0  0  0  0
   -4.8619    2.0655   -0.2148 H   0  0  0  0  0  0  0  0  0  0  0  0
   -2.7313    1.5869    0.8718 H   0  0  0  0  0  0  0  0  0  0  0  0
  1  2  1  0
  2  3  1  0
  3  4  1  0
  4  5  1  0
  5  6  1  0
  6  7  1  0
  7  8  1  0
  8  9  1  0
  9 10  2  0
  9 11  2  0
  9 12  1  0
 12 13  2  0
 13 14  1  0
 14 15  2  0
 15 16  1  0
 16 17  2  0
 16 18  1  0
 18 19  2  0
 18 20  1  0
 20 21  2  0
 20 22  1  0
 22 23  1  0
 23 24  1  0
 24 25  2  0
 25 26  1  0
 26 27  2  0
 27 28  1  0
 28 29  1  0
 29 30  1  0
 30 31  1  0
 27 32  1  0
 32 33  2  0
  8  4  1  0
 17 12  1  0
 33 24  1  0
 22 15  1  0
  1 34  1  0
  1 35  1  0
  1 36  1  0
  3 37  1  0
  3 38  1  0
  4 39  1  1
  5 40  1  0
  5 41  1  0
  6 42  1  0
  6 43  1  0
  7 44  1  0
  7 45  1  0
 13 46  1  0
 14 47  1  0
 17 48  1  0
 23 49  1  0
 23 50  1  0
 25 51  1  0
 26 52  1  0
 29 53  1  0
 29 54  1  0
 30 55  1  0
 30 56  1  0
 32 57  1  0
 33 58  1  0
M  END
$$$$
