
     RDKit          3D

 30 32  0  0  0  0  0  0  0  0999 V2000
   -1.5853    3.0644    0.3916 O   0  0  0  0  0  0  0  0  0  0  0  0
   -1.2605    1.8813    0.1412 C   0  0  0  0  0  0  0  0  0  0  0  0
    0.0941    1.5616    0.1620 C   0  0  0  0  0  0  0  0  0  0  0  0
    0.4980    0.2843   -0.1046 C   0  0  0  0  0  0  0  0  0  0  0  0
    1.9161   -0.0449   -0.0815 C   0  0  0  0  0  0  0  0  0  0  0  0
    2.9104    0.8569    0.1961 C   0  0  0  0  0  0  0  0  0  0  0  0
    4.2642    0.4845    0.2047 C   0  0  0  0  0  0  0  0  0  0  0  0
    4.6462   -0.8114   -0.0676 C   0  0  0  0  0  0  0  0  0  0  0  0
    5.9994   -1.1555   -0.0525 O   0  0  0  0  0  0  0  0  0  0  0  0
    3.6592   -1.7238   -0.3471 C   0  0  0  0  0  0  0  0  0  0  0  0
    2.3392   -1.3549   -0.3542 C   0  0  0  0  0  0  0  0  0  0  0  0
   -0.4091   -0.6526   -0.3842 O   0  0  0  0  0  0  0  0  0  0  0  0
   -1.6915   -0.4033   -0.4163 C   0  0  0  0  0  0  0  0  0  0  0  0
   -2.5920   -1.4017   -0.7097 C   0  0  0  0  0  0  0  0  0  0  0  0
   -3.9474   -1.1137   -0.7379 C   0  0  0  0  0  0  0  0  0  0  0  0
   -4.9135   -2.0701   -1.0262 O   0  0  0  0  0  0  0  0  0  0  0  0
   -4.4297    0.1696   -0.4754 C   0  0  0  0  0  0  0  0  0  0  0  0
   -3.4976    1.1414   -0.1859 C   0  0  0  0  0  0  0  0  0  0  0  0
   -3.9005    2.4581    0.0898 O   0  0  0  0  0  0  0  0  0  0  0  0
   -2.1483    0.8721   -0.1538 C   0  0  0  0  0  0  0  0  0  0  0  0
    0.7900    2.3789    0.3993 H   0  0  0  0  0  0  0  0  0  0  0  0
    2.6717    1.8834    0.4162 H   0  0  0  0  0  0  0  0  0  0  0  0
    5.0379    1.2291    0.4305 H   0  0  0  0  0  0  0  0  0  0  0  0
    6.6897   -0.6638    0.4632 H   0  0  0  0  0  0  0  0  0  0  0  0
    3.9498   -2.7349   -0.5601 H   0  0  0  0  0  0  0  0  0  0  0  0
    1.5310   -2.0560   -0.5724 H   0  0  0  0  0  0  0  0  0  0  0  0
   -2.2881   -2.4172   -0.9229 H   0  0  0  0  0  0  0  0  0  0  0  0
   -5.0052   -2.8970   -0.4620 H   0  0  0  0  0  0  0  0  0  0  0  0
   -5.4875    0.3843   -0.4998 H   0  0  0  0  0  0  0  0  0  0  0  0
   -3.8404    2.8507    1.0043 H   0  0  0  0  0  0  0  0  0  0  0  0
  1  2  2  0
  2  3  1  0
  3  4  2  0
  4  5  1  0
  5  6  2  0
  6  7  1  0
  7  8  2  0
  8  9  1  0
  8 10  1  0
 10 11  2  0
  4 12  1  0
 12 13  1  0
 13 14  2  0
 14 15  1  0
 15 16  1  0
 15 17  2  0
 17 18  1  0
 18 19  1  0
 18 20  2  0
 20  2  1  0
 11  5  1  0
 20 13  1  0
  3 21  1  0
  6 22  1  0
  7 23  1  0
  9 24  1  0
 10 25  1  0
 11 26  1  0
 14 27  1  0
 16 28  1  0
 17 29  1  0
 19 30  1  0
M  END
$$$$
