
     RDKit          3D

 52 55  0  0  0  0  0  0  0  0999 V2000
   -3.2297    1.7817   -1.9305 C   0  0  0  0  0  0  0  0  0  0  0  0
   -3.3026    0.6572   -0.8719 C   0  0  1  0  0  0  0  0  0  0  0  0
   -2.1442    0.1049   -0.7272 O   0  0  0  0  0  0  0  0  0  0  0  0
   -1.0333   -0.5464   -0.6308 C   0  0  0  0  0  0  0  0  0  0  0  0
    0.1352    0.0332   -0.0871 C   0  0  0  0  0  0  0  0  0  0  0  0
    1.3130   -0.6463    0.0189 C   0  0  0  0  0  0  0  0  0  0  0  0
    2.4874    0.0226    0.5958 C   0  0  0  0  0  0  0  0  0  0  0  0
    2.7414    1.3726    0.4804 C   0  0  0  0  0  0  0  0  0  0  0  0
    3.8697    1.6584    1.1056 N   0  0  0  0  0  0  0  0  0  0  0  0
    4.3408    0.5387    1.6136 N   0  0  0  0  0  0  0  0  0  0  0  0
    5.5603    0.4028    2.3776 C   0  0  0  0  0  0  0  0  0  0  0  0
    6.7346    0.1104    1.4948 C   0  0  0  0  0  0  0  0  0  0  0  0
    6.9997    1.1786    0.4719 C   0  0  0  0  0  0  0  0  0  0  0  0
    7.2441    2.3533    1.1512 F   0  0  0  0  0  0  0  0  0  0  0  0
    5.9621    1.2598   -0.4219 F   0  0  0  0  0  0  0  0  0  0  0  0
    8.1624    0.7757   -0.2025 F   0  0  0  0  0  0  0  0  0  0  0  0
    3.5123   -0.4947    1.3186 C   0  0  0  0  0  0  0  0  0  0  0  0
    1.3392   -1.9449   -0.4277 C   0  0  0  0  0  0  0  0  0  0  0  0
    0.2141   -2.5573   -0.9703 C   0  0  0  0  0  0  0  0  0  0  0  0
   -0.0043   -3.7992   -1.4684 N   0  0  0  0  0  0  0  0  0  0  0  0
   -1.2465   -3.9435   -1.8814 N   0  0  0  0  0  0  0  0  0  0  0  0
   -1.8655   -5.1265   -2.4759 C   0  0  0  0  0  0  0  0  0  0  0  0
   -1.8589   -2.7492   -1.6423 C   0  0  0  0  0  0  0  0  0  0  0  0
   -3.1655   -2.4851   -1.9311 F   0  0  0  0  0  0  0  0  0  0  0  0
   -0.9580   -1.8759   -1.0739 C   0  0  0  0  0  0  0  0  0  0  0  0
   -4.0222    1.1714    0.3603 C   0  0  1  0  0  0  0  0  0  0  0  0
   -3.3756    2.3383    1.0181 C   0  0  0  0  0  0  0  0  0  0  0  0
   -4.4850    2.9971    1.7250 N   0  0  0  0  0  0  0  0  0  0  0  0
   -5.7184    2.4008    1.3476 C   0  0  0  0  0  0  0  0  0  0  0  0
   -6.8197    2.5044    1.9456 O   0  0  0  0  0  0  0  0  0  0  0  0
   -5.4162    1.6344    0.0990 C   0  0  0  0  0  0  0  0  0  0  0  0
   -2.6981    1.3241   -2.8155 H   0  0  0  0  0  0  0  0  0  0  0  0
   -4.2405    2.0265   -2.2914 H   0  0  0  0  0  0  0  0  0  0  0  0
   -2.6146    2.6177   -1.6098 H   0  0  0  0  0  0  0  0  0  0  0  0
   -4.0675   -0.0482   -1.3402 H   0  0  0  0  0  0  0  0  0  0  0  0
    0.0869    1.0754    0.2634 H   0  0  0  0  0  0  0  0  0  0  0  0
    2.0872    2.0719   -0.0544 H   0  0  0  0  0  0  0  0  0  0  0  0
    5.6746    1.3494    2.9483 H   0  0  0  0  0  0  0  0  0  0  0  0
    5.4411   -0.4666    3.0601 H   0  0  0  0  0  0  0  0  0  0  0  0
    6.4931   -0.8617    0.9709 H   0  0  0  0  0  0  0  0  0  0  0  0
    7.6085   -0.0656    2.1598 H   0  0  0  0  0  0  0  0  0  0  0  0
    3.6034   -1.5383    1.5817 H   0  0  0  0  0  0  0  0  0  0  0  0
    2.2435   -2.4933   -0.3556 H   0  0  0  0  0  0  0  0  0  0  0  0
   -2.9479   -5.0022   -2.5291 H   0  0  0  0  0  0  0  0  0  0  0  0
   -1.5700   -5.9826   -1.8090 H   0  0  0  0  0  0  0  0  0  0  0  0
   -1.3802   -5.3359   -3.4504 H   0  0  0  0  0  0  0  0  0  0  0  0
   -4.0828    0.3138    1.0707 H   0  0  0  0  0  0  0  0  0  0  0  0
   -2.8496    3.0299    0.3645 H   0  0  0  0  0  0  0  0  0  0  0  0
   -2.7238    1.9377    1.8433 H   0  0  0  0  0  0  0  0  0  0  0  0
   -4.3623    3.7852    2.4004 H   0  0  0  0  0  0  0  0  0  0  0  0
   -6.1417    0.8080   -0.0444 H   0  0  0  0  0  0  0  0  0  0  0  0
   -5.5300    2.3274   -0.7444 H   0  0  0  0  0  0  0  0  0  0  0  0
  1  2  1  0
  2  3  1  0
  3  4  1  0
  4  5  2  0
  5  6  1  0
  6  7  1  0
  7  8  1  0
  8  9  2  0
  9 10  1  0
 10 11  1  0
 11 12  1  0
 12 13  1  0
 13 14  1  0
 13 15  1  0
 13 16  1  0
 10 17  1  0
  6 18  2  0
 18 19  1  0
 19 20  2  0
 20 21  1  0
 21 22  1  0
 21 23  1  0
 23 24  1  0
 23 25  2  0
  2 26  1  0
 26 27  1  0
 27 28  1  0
 28 29  1  0
 29 30  2  0
 29 31  1  0
 25  4  1  0
 31 26  1  0
 17  7  2  0
 25 19  1  0
  1 32  1  0
  1 33  1  0
  1 34  1  0
  2 35  1  6
  5 36  1  0
  8 37  1  0
 11 38  1  0
 11 39  1  0
 12 40  1  0
 12 41  1  0
 17 42  1  0
 18 43  1  0
 22 44  1  0
 22 45  1  0
 22 46  1  0
 26 47  1  1
 27 48  1  0
 27 49  1  0
 28 50  1  0
 31 51  1  0
 31 52  1  0
M  END
$$$$
