
     RDKit          3D

 56 58  0  0  0  0  0  0  0  0999 V2000
    1.7483    1.9402   -0.1972 C   0  0  2  0  0  0  0  0  0  0  0  0
    1.2812    3.2912   -0.6935 C   0  0  0  0  0  0  0  0  0  0  0  0
    2.6864    1.3864   -1.2645 C   0  0  0  0  0  0  0  0  0  0  0  0
    3.2492    0.2066   -0.6916 N   0  0  0  0  0  0  0  0  0  0  0  0
    2.2741   -0.7773   -0.3721 C   0  0  0  0  0  0  0  0  0  0  0  0
    0.8580   -0.3082   -0.4074 C   0  0  0  0  0  0  0  0  0  0  0  0
    0.6386    1.0544   -0.1154 N   0  0  0  0  0  0  0  0  0  0  0  0
   -0.3509    1.3147    1.2630 S   0  0  0  0  0  0  0  0  0  0  0  0
    0.2164    0.5952    2.4800 O   0  0  0  0  0  0  0  0  0  0  0  0
   -0.4554    2.7427    1.6416 O   0  0  0  0  0  0  0  0  0  0  0  0
   -1.9050    0.6194    0.9691 C   0  0  0  0  0  0  0  0  0  0  0  0
   -2.3643   -0.6518    1.2460 C   0  0  0  0  0  0  0  0  0  0  0  0
   -3.6545   -1.0233    0.9306 C   0  0  0  0  0  0  0  0  0  0  0  0
   -4.5268   -0.1391    0.3294 C   0  0  0  0  0  0  0  0  0  0  0  0
   -4.0948    1.1403    0.0404 C   0  0  0  0  0  0  0  0  0  0  0  0
   -2.8021    1.5021    0.3599 C   0  0  0  0  0  0  0  0  0  0  0  0
   -5.9225   -0.5548   -0.0069 C   0  0  0  0  0  0  0  0  0  0  0  0
   -6.1176   -1.9798    0.4119 C   0  0  0  0  0  0  0  0  0  0  0  0
   -6.2801   -0.3073   -1.4454 C   0  0  0  0  0  0  0  0  0  0  0  0
   -6.8229    0.2865    0.8949 C   0  0  0  0  0  0  0  0  0  0  0  0
    4.6287   -0.0201   -0.4417 C   0  0  0  0  0  0  0  0  0  0  0  0
    5.6149    0.9004   -0.7232 C   0  0  0  0  0  0  0  0  0  0  0  0
    6.9621    0.6929   -0.4854 C   0  0  0  0  0  0  0  0  0  0  0  0
    7.3371   -0.5139    0.0691 C   0  0  0  0  0  0  0  0  0  0  0  0
    6.3801   -1.4624    0.3659 C   0  0  0  0  0  0  0  0  0  0  0  0
    5.0302   -1.2169    0.1115 C   0  0  0  0  0  0  0  0  0  0  0  0
    8.6938   -0.8165    0.3484 N   0  0  0  0  0  4  0  0  0  0  0  0
    9.0274   -2.0178    0.8960 O   0  0  0  0  0  1  0  0  0  0  0  0
    9.5861    0.0147    0.0945 O   0  0  0  0  0  0  0  0  0  0  0  0
    2.3024    2.0982    0.7451 H   0  0  0  0  0  0  0  0  0  0  0  0
    1.2609    4.0281    0.1403 H   0  0  0  0  0  0  0  0  0  0  0  0
    1.9946    3.6981   -1.4446 H   0  0  0  0  0  0  0  0  0  0  0  0
    0.2897    3.2161   -1.2126 H   0  0  0  0  0  0  0  0  0  0  0  0
    3.3884    2.1383   -1.6296 H   0  0  0  0  0  0  0  0  0  0  0  0
    2.0142    1.0827   -2.1012 H   0  0  0  0  0  0  0  0  0  0  0  0
    2.5079   -1.2144    0.6434 H   0  0  0  0  0  0  0  0  0  0  0  0
    2.3800   -1.6256   -1.0806 H   0  0  0  0  0  0  0  0  0  0  0  0
    0.3986   -0.5196   -1.4089 H   0  0  0  0  0  0  0  0  0  0  0  0
    0.2891   -0.9358    0.3092 H   0  0  0  0  0  0  0  0  0  0  0  0
   -1.6200   -1.2738    1.7146 H   0  0  0  0  0  0  0  0  0  0  0  0
   -3.9383   -2.0321    1.1780 H   0  0  0  0  0  0  0  0  0  0  0  0
   -4.8115    1.7874   -0.4265 H   0  0  0  0  0  0  0  0  0  0  0  0
   -2.5847    2.5392    0.0801 H   0  0  0  0  0  0  0  0  0  0  0  0
   -5.4059   -2.5986   -0.1604 H   0  0  0  0  0  0  0  0  0  0  0  0
   -7.1806   -2.2304    0.2208 H   0  0  0  0  0  0  0  0  0  0  0  0
   -5.9535   -2.0502    1.4958 H   0  0  0  0  0  0  0  0  0  0  0  0
   -7.2061   -0.9252   -1.6338 H   0  0  0  0  0  0  0  0  0  0  0  0
   -5.5150   -0.6664   -2.1404 H   0  0  0  0  0  0  0  0  0  0  0  0
   -6.5927    0.7552   -1.6164 H   0  0  0  0  0  0  0  0  0  0  0  0
   -6.8121    1.3520    0.6379 H   0  0  0  0  0  0  0  0  0  0  0  0
   -6.4225    0.1938    1.9354 H   0  0  0  0  0  0  0  0  0  0  0  0
   -7.8360   -0.1486    0.8278 H   0  0  0  0  0  0  0  0  0  0  0  0
    5.3501    1.8539   -1.1578 H   0  0  0  0  0  0  0  0  0  0  0  0
    7.7331    1.3999   -0.7001 H   0  0  0  0  0  0  0  0  0  0  0  0
    6.6939   -2.3974    0.7981 H   0  0  0  0  0  0  0  0  0  0  0  0
    4.3601   -2.0213    0.3786 H   0  0  0  0  0  0  0  0  0  0  0  0
  1  2  1  0
  1  3  1  0
  3  4  1  0
  4  5  1  0
  5  6  1  0
  6  7  1  0
  7  8  1  0
  8  9  2  0
  8 10  2  0
  8 11  1  0
 11 12  2  0
 12 13  1  0
 13 14  2  0
 14 15  1  0
 15 16  2  0
 14 17  1  0
 17 18  1  0
 17 19  1  0
 17 20  1  0
  4 21  1  0
 21 22  2  0
 22 23  1  0
 23 24  2  0
 24 25  1  0
 25 26  2  0
 24 27  1  0
 27 28  1  0
 27 29  2  0
  7  1  1  0
 16 11  1  0
 26 21  1  0
  1 30  1  1
  2 31  1  0
  2 32  1  0
  2 33  1  0
  3 34  1  0
  3 35  1  0
  5 36  1  0
  5 37  1  0
  6 38  1  0
  6 39  1  0
 12 40  1  0
 13 41  1  0
 15 42  1  0
 16 43  1  0
 18 44  1  0
 18 45  1  0
 18 46  1  0
 19 47  1  0
 19 48  1  0
 19 49  1  0
 20 50  1  0
 20 51  1  0
 20 52  1  0
 22 53  1  0
 23 54  1  0
 25 55  1  0
 26 56  1  0
M  CHG  2  27   1  28  -1
M  END
$$$$
