
     RDKit          3D

 45 45  0  0  0  0  0  0  0  0999 V2000
    5.0733    0.3774    0.5815 C   0  0  0  0  0  0  0  0  0  0  0  0
    4.2334   -0.5882    1.3781 C   0  0  0  0  0  0  0  0  0  0  0  0
    3.4011   -1.3940    0.3750 C   0  0  0  0  0  0  0  0  0  0  0  0
    2.5696   -0.3589   -0.3642 C   0  0  0  0  0  0  0  0  0  0  0  0
    1.6918   -1.0446   -1.3742 C   0  0  0  0  0  0  0  0  0  0  0  0
    0.8544   -0.0857   -2.1327 C   0  0  0  0  0  0  0  0  0  0  0  0
   -0.0395    0.8142   -1.3767 C   0  0  0  0  0  0  0  0  0  0  0  0
   -1.0503    0.3638   -0.5554 N   0  0  0  0  0  0  0  0  0  0  0  0
   -0.8708   -0.2427    0.6798 C   0  0  0  0  0  0  0  0  0  0  0  0
   -2.1310   -0.9362    1.1933 C   0  0  2  0  0  0  0  0  0  0  0  0
   -1.8430   -2.1649    1.7770 O   0  0  0  0  0  0  0  0  0  0  0  0
   -3.0654   -1.0785    0.0168 C   0  0  1  0  0  0  0  0  0  0  0  0
   -4.2113   -1.7935    0.3504 O   0  0  0  0  0  0  0  0  0  0  0  0
   -3.4878    0.3561   -0.3452 C   0  0  2  0  0  0  0  0  0  0  0  0
   -4.4199    0.3244   -1.3625 O   0  0  0  0  0  0  0  0  0  0  0  0
   -2.2511    1.1646   -0.6994 C   0  0  1  0  0  0  0  0  0  0  0  0
   -2.1888    2.4514    0.0576 C   0  0  0  0  0  0  0  0  0  0  0  0
   -2.0162    2.2857    1.4199 O   0  0  0  0  0  0  0  0  0  0  0  0
    4.5693    1.3505    0.4185 H   0  0  0  0  0  0  0  0  0  0  0  0
    5.3227   -0.0808   -0.3781 H   0  0  0  0  0  0  0  0  0  0  0  0
    6.0012    0.5764    1.1432 H   0  0  0  0  0  0  0  0  0  0  0  0
    3.5129   -0.0740    2.0465 H   0  0  0  0  0  0  0  0  0  0  0  0
    4.8987   -1.2806    1.9171 H   0  0  0  0  0  0  0  0  0  0  0  0
    2.7613   -2.1295    0.8791 H   0  0  0  0  0  0  0  0  0  0  0  0
    4.1042   -1.8790   -0.3333 H   0  0  0  0  0  0  0  0  0  0  0  0
    3.2545    0.3183   -0.9264 H   0  0  0  0  0  0  0  0  0  0  0  0
    1.9709    0.2100    0.3719 H   0  0  0  0  0  0  0  0  0  0  0  0
    1.1262   -1.8478   -0.9082 H   0  0  0  0  0  0  0  0  0  0  0  0
    2.3807   -1.5793   -2.1254 H   0  0  0  0  0  0  0  0  0  0  0  0
    0.2785   -0.6719   -2.9337 H   0  0  0  0  0  0  0  0  0  0  0  0
    1.5621    0.5313   -2.7860 H   0  0  0  0  0  0  0  0  0  0  0  0
   -0.5255    1.5118   -2.1585 H   0  0  0  0  0  0  0  0  0  0  0  0
    0.6611    1.5641   -0.8659 H   0  0  0  0  0  0  0  0  0  0  0  0
   -0.0991   -1.0143    0.6760 H   0  0  0  0  0  0  0  0  0  0  0  0
   -0.5141    0.4796    1.4932 H   0  0  0  0  0  0  0  0  0  0  0  0
   -2.6555   -0.3356    1.9570 H   0  0  0  0  0  0  0  0  0  0  0  0
   -2.6158   -2.7929    1.6996 H   0  0  0  0  0  0  0  0  0  0  0  0
   -2.5956   -1.5378   -0.8610 H   0  0  0  0  0  0  0  0  0  0  0  0
   -5.0288   -1.3425    0.0437 H   0  0  0  0  0  0  0  0  0  0  0  0
   -3.9828    0.7552    0.5655 H   0  0  0  0  0  0  0  0  0  0  0  0
   -4.9369    1.1500   -1.4502 H   0  0  0  0  0  0  0  0  0  0  0  0
   -2.3346    1.4101   -1.7747 H   0  0  0  0  0  0  0  0  0  0  0  0
   -1.3650    3.1176   -0.2882 H   0  0  0  0  0  0  0  0  0  0  0  0
   -3.1270    3.0220   -0.1023 H   0  0  0  0  0  0  0  0  0  0  0  0
   -2.8719    2.1189    1.8687 H   0  0  0  0  0  0  0  0  0  0  0  0
  1  2  1  0
  2  3  1  0
  3  4  1  0
  4  5  1  0
  5  6  1  0
  6  7  1  0
  7  8  1  0
  8  9  1  0
  9 10  1  0
 10 11  1  0
 10 12  1  0
 12 13  1  0
 12 14  1  0
 14 15  1  0
 14 16  1  0
 16 17  1  0
 17 18  1  0
 16  8  1  0
  1 19  1  0
  1 20  1  0
  1 21  1  0
  2 22  1  0
  2 23  1  0
  3 24  1  0
  3 25  1  0
  4 26  1  0
  4 27  1  0
  5 28  1  0
  5 29  1  0
  6 30  1  0
  6 31  1  0
  7 32  1  0
  7 33  1  0
  9 34  1  0
  9 35  1  0
 10 36  1  1
 11 37  1  0
 12 38  1  6
 13 39  1  0
 14 40  1  1
 15 41  1  0
 16 42  1  6
 17 43  1  0
 17 44  1  0
 18 45  1  0
M  END
$$$$
