
     RDKit          3D

 72 77  0  0  0  0  0  0  0  0999 V2000
  -10.4296   -1.1792    2.3139 C   0  0  0  0  0  0  0  0  0  0  0  0
  -10.5275   -1.9508    1.1271 O   0  0  0  0  0  0  0  0  0  0  0  0
   -9.5011   -1.8409    0.1954 C   0  0  0  0  0  0  0  0  0  0  0  0
   -8.4124   -1.0008    0.4178 C   0  0  0  0  0  0  0  0  0  0  0  0
   -7.4018   -0.9083   -0.5247 C   0  0  0  0  0  0  0  0  0  0  0  0
   -6.2632   -0.0224   -0.2856 C   0  0  0  0  0  0  0  0  0  0  0  0
   -6.3738    1.1663    0.4269 C   0  0  0  0  0  0  0  0  0  0  0  0
   -5.2688    1.9757    0.6319 C   0  0  0  0  0  0  0  0  0  0  0  0
   -4.0301    1.6523    0.1514 C   0  0  0  0  0  0  0  0  0  0  0  0
   -3.8961    0.4775   -0.5580 C   0  0  0  0  0  0  0  0  0  0  0  0
   -5.0006   -0.3306   -0.7626 C   0  0  0  0  0  0  0  0  0  0  0  0
   -2.7008   -0.0308   -1.1294 N   0  0  0  0  0  0  0  0  0  0  0  0
   -1.4471    0.6055   -1.4013 C   0  0  0  0  0  0  0  0  0  0  0  0
   -0.6657   -0.1260   -2.2831 C   0  0  0  0  0  0  0  0  0  0  0  0
    0.5800    0.3283   -2.6674 C   0  0  0  0  0  0  0  0  0  0  0  0
    1.0703    1.5218   -2.1794 C   0  0  0  0  0  0  0  0  0  0  0  0
    2.4114    1.9560   -2.6223 C   0  0  0  0  0  0  0  0  0  0  0  0
    3.4886    1.5629   -1.7102 C   0  0  0  0  0  0  0  0  0  0  0  0
    3.4796    1.9898   -0.5074 O   0  0  0  0  0  0  0  0  0  0  0  0
    4.5737    0.7207   -2.0626 N   0  0  0  0  0  0  0  0  0  0  0  0
    5.6142    0.3541   -1.1601 C   0  0  0  0  0  0  0  0  0  0  0  0
    5.4533   -0.7504   -0.3434 C   0  0  0  0  0  0  0  0  0  0  0  0
    6.4675   -1.0985    0.5219 C   0  0  0  0  0  0  0  0  0  0  0  0
    7.6642   -0.3848    0.6178 C   0  0  0  0  0  0  0  0  0  0  0  0
    8.6744   -0.7797    1.5469 N   0  0  0  0  0  0  0  0  0  0  0  0
    8.3268   -1.6543    2.6793 C   0  0  0  0  0  0  0  0  0  0  0  0
    8.9692   -0.9857    3.9060 C   0  0  0  0  0  0  0  0  0  0  0  0
   10.3368   -1.0675    3.7063 O   0  0  0  0  0  0  0  0  0  0  0  0
   10.7322   -0.1419    2.7486 C   0  0  0  0  0  0  0  0  0  0  0  0
   10.0353   -0.3688    1.4087 C   0  0  0  0  0  0  0  0  0  0  0  0
    7.7956    0.7089   -0.2074 C   0  0  0  0  0  0  0  0  0  0  0  0
    6.7838    1.0837   -1.0932 C   0  0  0  0  0  0  0  0  0  0  0  0
    0.2817    2.2310   -1.3078 C   0  0  0  0  0  0  0  0  0  0  0  0
   -0.9663    1.8097   -0.9009 C   0  0  0  0  0  0  0  0  0  0  0  0
   -1.6151    2.6964    0.0149 N   0  0  0  0  0  0  0  0  0  0  0  0
   -2.9769    2.6311    0.4605 C   0  0  0  0  0  0  0  0  0  0  0  0
   -3.3636    3.5306    1.2336 O   0  0  0  0  0  0  0  0  0  0  0  0
   -7.5264   -1.6624   -1.6497 C   0  0  0  0  0  0  0  0  0  0  0  0
   -8.6078   -2.5113   -1.8949 C   0  0  0  0  0  0  0  0  0  0  0  0
   -9.5972   -2.6012   -0.9715 C   0  0  0  0  0  0  0  0  0  0  0  0
  -10.7243   -3.4372   -1.1473 N   0  0  0  0  0  0  0  0  0  0  0  0
  -10.3391   -0.1133    2.0676 H   0  0  0  0  0  0  0  0  0  0  0  0
  -11.3269   -1.4217    2.9306 H   0  0  0  0  0  0  0  0  0  0  0  0
   -9.5459   -1.4900    2.9246 H   0  0  0  0  0  0  0  0  0  0  0  0
   -8.4045   -0.4427    1.3431 H   0  0  0  0  0  0  0  0  0  0  0  0
   -7.3581    1.4086    0.7999 H   0  0  0  0  0  0  0  0  0  0  0  0
   -5.3830    2.9015    1.1938 H   0  0  0  0  0  0  0  0  0  0  0  0
   -4.8612   -1.2447   -1.3228 H   0  0  0  0  0  0  0  0  0  0  0  0
   -2.7311   -1.0343   -1.3985 H   0  0  0  0  0  0  0  0  0  0  0  0
   -1.0641   -1.0607   -2.6583 H   0  0  0  0  0  0  0  0  0  0  0  0
    1.1345   -0.3086   -3.3669 H   0  0  0  0  0  0  0  0  0  0  0  0
    2.6309    1.5050   -3.6225 H   0  0  0  0  0  0  0  0  0  0  0  0
    2.3769    3.0545   -2.8207 H   0  0  0  0  0  0  0  0  0  0  0  0
    4.6003    0.3540   -3.0424 H   0  0  0  0  0  0  0  0  0  0  0  0
    4.5248   -1.3426   -0.3849 H   0  0  0  0  0  0  0  0  0  0  0  0
    6.3480   -1.9548    1.1511 H   0  0  0  0  0  0  0  0  0  0  0  0
    7.2561   -1.6664    2.9004 H   0  0  0  0  0  0  0  0  0  0  0  0
    8.7225   -2.6706    2.5534 H   0  0  0  0  0  0  0  0  0  0  0  0
    8.6746   -1.4515    4.8442 H   0  0  0  0  0  0  0  0  0  0  0  0
    8.6657    0.1005    3.8422 H   0  0  0  0  0  0  0  0  0  0  0  0
   11.8281   -0.2542    2.6223 H   0  0  0  0  0  0  0  0  0  0  0  0
   10.5486    0.9106    3.0451 H   0  0  0  0  0  0  0  0  0  0  0  0
   10.6610   -1.1379    0.8886 H   0  0  0  0  0  0  0  0  0  0  0  0
   10.1817    0.5626    0.8348 H   0  0  0  0  0  0  0  0  0  0  0  0
    8.6823    1.3186   -0.2010 H   0  0  0  0  0  0  0  0  0  0  0  0
    6.8724    1.9361   -1.7448 H   0  0  0  0  0  0  0  0  0  0  0  0
    0.6360    3.1765   -0.9028 H   0  0  0  0  0  0  0  0  0  0  0  0
   -1.0176    3.4691    0.3908 H   0  0  0  0  0  0  0  0  0  0  0  0
   -6.7742   -1.6369   -2.4238 H   0  0  0  0  0  0  0  0  0  0  0  0
   -8.6593   -3.0969   -2.8170 H   0  0  0  0  0  0  0  0  0  0  0  0
  -11.1884   -3.8186   -0.2978 H   0  0  0  0  0  0  0  0  0  0  0  0
  -11.1334   -3.7065   -2.0671 H   0  0  0  0  0  0  0  0  0  0  0  0
  1  2  1  0
  2  3  1  0
  3  4  2  0
  4  5  1  0
  5  6  1  0
  6  7  2  0
  7  8  1  0
  8  9  2  0
  9 10  1  0
 10 11  2  0
 10 12  1  0
 12 13  1  0
 13 14  2  0
 14 15  1  0
 15 16  2  0
 16 17  1  0
 17 18  1  0
 18 19  2  0
 18 20  1  0
 20 21  1  0
 21 22  2  0
 22 23  1  0
 23 24  2  0
 24 25  1  0
 25 26  1  0
 26 27  1  0
 27 28  1  0
 28 29  1  0
 29 30  1  0
 24 31  1  0
 31 32  2  0
 16 33  1  0
 33 34  2  0
 34 35  1  0
 35 36  1  0
 36 37  2  0
  5 38  2  0
 38 39  1  0
 39 40  2  0
 40 41  1  0
 40  3  1  0
 11  6  1  0
 34 13  1  0
 36  9  1  0
 32 21  1  0
 30 25  1  0
  1 42  1  0
  1 43  1  0
  1 44  1  0
  4 45  1  0
  7 46  1  0
  8 47  1  0
 11 48  1  0
 12 49  1  0
 14 50  1  0
 15 51  1  0
 17 52  1  0
 17 53  1  0
 20 54  1  0
 22 55  1  0
 23 56  1  0
 26 57  1  0
 26 58  1  0
 27 59  1  0
 27 60  1  0
 29 61  1  0
 29 62  1  0
 30 63  1  0
 30 64  1  0
 31 65  1  0
 32 66  1  0
 33 67  1  0
 35 68  1  0
 38 69  1  0
 39 70  1  0
 41 71  1  0
 41 72  1  0
M  END
$$$$
