
     RDKit          3D

 58 63  0  0  0  0  0  0  0  0999 V2000
    5.9296    0.5243    1.7214 C   0  0  0  0  0  0  0  0  0  0  0  0
    4.9399    0.1875    0.7850 O   0  0  0  0  0  0  0  0  0  0  0  0
    4.8926   -1.1321    0.3189 C   0  0  0  0  0  0  0  0  0  0  0  0
    5.7647   -2.0605    0.7480 N   0  0  0  0  0  0  0  0  0  0  0  0
    5.7262   -3.3269    0.3065 C   0  0  0  0  0  0  0  0  0  0  0  0
    4.7503   -3.6631   -0.6181 C   0  0  0  0  0  0  0  0  0  0  0  0
    3.8507   -2.7294   -1.0686 C   0  0  0  0  0  0  0  0  0  0  0  0
    3.8909   -1.4159   -0.6105 C   0  0  0  0  0  0  0  0  0  0  0  0
    2.9817   -0.4349   -1.0533 N   0  0  0  0  0  0  0  0  0  0  0  0
    3.2590    0.6293   -1.7603 N   0  0  0  0  0  0  0  0  0  0  0  0
    2.1082    1.3316   -1.9868 C   0  0  0  0  0  0  0  0  0  0  0  0
    2.0087    2.5864   -2.7442 C   0  0  0  0  0  0  0  0  0  0  0  0
    1.0547    0.6445   -1.3726 C   0  0  0  0  0  0  0  0  0  0  0  0
    1.6633   -0.4440   -0.8109 C   0  0  0  0  0  0  0  0  0  0  0  0
    0.5598   -1.1925   -0.1700 C   0  0  0  0  0  0  0  0  0  0  0  0
    0.7669   -2.2852    0.4642 O   0  0  0  0  0  0  0  0  0  0  0  0
   -0.6750   -0.5527   -0.3567 N   0  0  0  0  0  0  0  0  0  0  0  0
   -1.9541   -0.9860    0.0870 C   0  0  0  0  0  0  0  0  0  0  0  0
   -2.1544   -2.1035    0.8217 C   0  0  0  0  0  0  0  0  0  0  0  0
   -3.4341   -2.4794    1.2189 C   0  0  0  0  0  0  0  0  0  0  0  0
   -3.5765   -3.7141    2.0206 C   0  0  0  0  0  0  0  0  0  0  0  0
   -4.4893   -1.6881    0.8468 C   0  0  0  0  0  0  0  0  0  0  0  0
   -5.8056   -1.8041    1.0836 N   0  0  0  0  0  0  0  0  0  0  0  0
   -6.4370   -0.7897    0.5173 N   0  0  0  0  0  0  0  0  0  0  0  0
   -5.5456    0.0076   -0.0997 C   0  0  0  0  0  0  0  0  0  0  0  0
   -5.7783    1.2432   -0.8557 C   0  0  0  0  0  0  0  0  0  0  0  0
   -4.3328   -0.5745    0.1199 N   0  0  0  0  0  0  0  0  0  0  0  0
   -3.0863   -0.2352   -0.2500 C   0  0  0  0  0  0  0  0  0  0  0  0
   -0.4073    0.6748   -1.1091 C   0  0  0  0  0  0  0  0  0  0  0  0
   -0.7143    1.8748   -0.2782 C   0  0  0  0  0  0  0  0  0  0  0  0
   -1.3153    2.9607   -0.8712 C   0  0  0  0  0  0  0  0  0  0  0  0
   -1.5832    4.0717   -0.0985 C   0  0  0  0  0  0  0  0  0  0  0  0
   -1.2718    4.1395    1.2524 C   0  0  0  0  0  0  0  0  0  0  0  0
   -1.6250    5.5651    2.2072 Cl  0  0  0  0  0  0  0  0  0  0  0  0
   -0.6685    3.0456    1.8413 C   0  0  0  0  0  0  0  0  0  0  0  0
   -0.4003    1.9323    1.0658 C   0  0  0  0  0  0  0  0  0  0  0  0
    0.1888    0.8768    1.6621 F   0  0  0  0  0  0  0  0  0  0  0  0
    5.4671    1.2512    2.4376 H   0  0  0  0  0  0  0  0  0  0  0  0
    6.3205   -0.3599    2.2450 H   0  0  0  0  0  0  0  0  0  0  0  0
    6.7626    1.0882    1.2149 H   0  0  0  0  0  0  0  0  0  0  0  0
    6.4394   -4.0790    0.6600 H   0  0  0  0  0  0  0  0  0  0  0  0
    4.7039   -4.6981   -0.9913 H   0  0  0  0  0  0  0  0  0  0  0  0
    3.0797   -2.9797   -1.7940 H   0  0  0  0  0  0  0  0  0  0  0  0
    1.6435    2.3595   -3.7802 H   0  0  0  0  0  0  0  0  0  0  0  0
    1.3555    3.3239   -2.2358 H   0  0  0  0  0  0  0  0  0  0  0  0
    3.0116    3.0462   -2.8561 H   0  0  0  0  0  0  0  0  0  0  0  0
   -1.3244   -2.7385    1.1234 H   0  0  0  0  0  0  0  0  0  0  0  0
   -2.7279   -4.3894    1.7959 H   0  0  0  0  0  0  0  0  0  0  0  0
   -3.5800   -3.4182    3.0933 H   0  0  0  0  0  0  0  0  0  0  0  0
   -4.5420   -4.2182    1.7559 H   0  0  0  0  0  0  0  0  0  0  0  0
   -5.7727    2.1511   -0.2068 H   0  0  0  0  0  0  0  0  0  0  0  0
   -5.0649    1.3547   -1.7095 H   0  0  0  0  0  0  0  0  0  0  0  0
   -6.7990    1.2086   -1.3044 H   0  0  0  0  0  0  0  0  0  0  0  0
   -2.9842    0.6482   -0.8297 H   0  0  0  0  0  0  0  0  0  0  0  0
   -0.9959    0.7339   -2.0250 H   0  0  0  0  0  0  0  0  0  0  0  0
   -1.5944    3.0004   -1.9158 H   0  0  0  0  0  0  0  0  0  0  0  0
   -2.0546    4.9429   -0.5314 H   0  0  0  0  0  0  0  0  0  0  0  0
   -0.4252    3.0885    2.8797 H   0  0  0  0  0  0  0  0  0  0  0  0
  1  2  1  0
  2  3  1  0
  3  4  2  0
  4  5  1  0
  5  6  2  0
  6  7  1  0
  7  8  2  0
  8  9  1  0
  9 10  1  0
 10 11  2  0
 11 12  1  0
 11 13  1  0
 13 14  2  0
 14 15  1  0
 15 16  2  0
 15 17  1  0
 17 18  1  0
 18 19  1  0
 19 20  2  0
 20 21  1  0
 20 22  1  0
 22 23  2  0
 23 24  1  0
 24 25  2  0
 25 26  1  0
 25 27  1  0
 27 28  1  0
 17 29  1  0
 29 30  1  0
 30 31  2  0
 31 32  1  0
 32 33  2  0
 33 34  1  0
 33 35  1  0
 35 36  2  0
 36 37  1  0
  8  3  1  0
 14  9  1  0
 28 18  2  0
 36 30  1  0
 29 13  1  0
 27 22  1  0
  1 38  1  0
  1 39  1  0
  1 40  1  0
  5 41  1  0
  6 42  1  0
  7 43  1  0
 12 44  1  0
 12 45  1  0
 12 46  1  0
 19 47  1  0
 21 48  1  0
 21 49  1  0
 21 50  1  0
 26 51  1  0
 26 52  1  0
 26 53  1  0
 28 54  1  0
 29 55  1  0
 31 56  1  0
 32 57  1  0
 35 58  1  0
M  END
$$$$
