
     RDKit          3D

 52 52  0  0  0  0  0  0  0  0999 V2000
    0.3979    2.2569    2.2581 C   0  0  1  0  0  0  0  0  0  0  0  0
   -0.6541    3.3041    1.9692 C   0  0  0  0  0  0  0  0  0  0  0  0
    0.2046    1.7765    3.5518 O   0  0  0  0  0  0  0  0  0  0  0  0
    0.3308    1.1128    1.2733 C   0  0  2  0  0  0  0  0  0  0  0  0
    0.5216    1.5346   -0.0797 N   0  0  0  0  0  0  0  0  0  0  0  0
    1.4582    1.1295   -0.8572 C   0  0  0  0  0  0  0  0  0  0  0  0
    1.3184    1.7569   -2.0840 O   0  0  0  0  0  0  0  0  0  0  0  0
    2.5407    0.1598   -0.5680 C   0  0  1  0  0  0  0  0  0  0  0  0
    2.4627   -0.9678   -1.4670 O   0  0  0  0  0  0  0  0  0  0  0  0
    3.5902    0.0324   -1.5114 C   0  0  2  0  0  0  0  0  0  0  0  0
    4.8349   -0.7244   -1.3429 C   0  0  0  0  0  0  0  0  0  0  0  0
    5.6445   -0.5843   -2.3218 O   0  0  0  0  0  0  0  0  0  0  0  0
    5.1341   -1.5206   -0.2450 O   0  0  0  0  0  0  0  0  0  0  0  0
    6.4164   -2.1630   -0.3076 C   0  0  0  0  0  0  0  0  0  0  0  0
    7.4647   -1.0773   -0.3977 C   0  0  0  0  0  0  0  0  0  0  0  0
   -1.0013    0.4515    1.4083 C   0  0  0  0  0  0  0  0  0  0  0  0
   -1.4086   -0.1179    2.6103 O   0  0  0  0  0  0  0  0  0  0  0  0
   -1.8013    0.3995    0.3982 N   0  0  0  0  0  0  0  0  0  0  0  0
   -3.1337   -0.2559    0.5137 C   0  0  2  0  0  0  0  0  0  0  0  0
   -2.7840   -1.7218    0.4124 C   0  0  0  0  0  0  0  0  0  0  0  0
   -1.6954   -2.5161    0.0597 O   0  0  0  0  0  0  0  0  0  0  0  0
   -3.3414   -2.8603    0.6081 O   0  0  0  0  0  0  0  0  0  0  0  0
   -3.9761    0.1798   -0.6291 C   0  0  1  0  0  0  0  0  0  0  0  0
   -3.3475   -0.2472   -1.9590 C   0  0  0  0  0  0  0  0  0  0  0  0
   -5.4137   -0.1285   -0.6229 C   0  0  0  0  0  0  0  0  0  0  0  0
   -5.7945   -1.5820   -0.5845 C   0  0  0  0  0  0  0  0  0  0  0  0
    1.4052    2.7198    2.2551 H   0  0  0  0  0  0  0  0  0  0  0  0
   -0.5603    4.0888    2.7480 H   0  0  0  0  0  0  0  0  0  0  0  0
   -1.6613    2.8736    2.0792 H   0  0  0  0  0  0  0  0  0  0  0  0
   -0.5134    3.7931    1.0010 H   0  0  0  0  0  0  0  0  0  0  0  0
   -0.7483    1.8766    3.8156 H   0  0  0  0  0  0  0  0  0  0  0  0
    1.0615    0.3486    1.6294 H   0  0  0  0  0  0  0  0  0  0  0  0
    1.0278    2.7206   -2.2103 H   0  0  0  0  0  0  0  0  0  0  0  0
    2.6976   -0.0748    0.4849 H   0  0  0  0  0  0  0  0  0  0  0  0
    3.5491    0.6058   -2.4611 H   0  0  0  0  0  0  0  0  0  0  0  0
    6.5856   -2.8643    0.5137 H   0  0  0  0  0  0  0  0  0  0  0  0
    6.4300   -2.7176   -1.2614 H   0  0  0  0  0  0  0  0  0  0  0  0
    8.0670   -1.1521   -1.3295 H   0  0  0  0  0  0  0  0  0  0  0  0
    8.1459   -1.1224    0.4634 H   0  0  0  0  0  0  0  0  0  0  0  0
    7.0036   -0.0675   -0.4362 H   0  0  0  0  0  0  0  0  0  0  0  0
   -2.0598   -0.8887    2.6540 H   0  0  0  0  0  0  0  0  0  0  0  0
   -3.5810   -0.0986    1.5000 H   0  0  0  0  0  0  0  0  0  0  0  0
   -1.5396   -2.8392   -0.9022 H   0  0  0  0  0  0  0  0  0  0  0  0
   -3.9065    1.3327   -0.6212 H   0  0  0  0  0  0  0  0  0  0  0  0
   -2.4211    0.3083   -2.1466 H   0  0  0  0  0  0  0  0  0  0  0  0
   -3.1949   -1.3501   -1.9073 H   0  0  0  0  0  0  0  0  0  0  0  0
   -4.0750   -0.0664   -2.7661 H   0  0  0  0  0  0  0  0  0  0  0  0
   -5.8508    0.2653   -1.5851 H   0  0  0  0  0  0  0  0  0  0  0  0
   -5.9859    0.4417    0.1679 H   0  0  0  0  0  0  0  0  0  0  0  0
   -5.8441   -1.9042    0.4730 H   0  0  0  0  0  0  0  0  0  0  0  0
   -6.8491   -1.6903   -1.0020 H   0  0  0  0  0  0  0  0  0  0  0  0
   -5.1503   -2.1657   -1.2415 H   0  0  0  0  0  0  0  0  0  0  0  0
  1  2  1  0
  1  3  1  0
  1  4  1  0
  4  5  1  0
  5  6  2  3
  6  7  1  0
  6  8  1  0
  8  9  1  0
  9 10  1  0
 10 11  1  0
 11 12  2  0
 11 13  1  0
 13 14  1  0
 14 15  1  0
  4 16  1  0
 16 17  1  0
 16 18  2  3
 18 19  1  0
 19 20  1  0
 20 21  1  0
 20 22  2  0
 19 23  1  0
 23 24  1  0
 23 25  1  0
 25 26  1  0
 10  8  1  0
  1 27  1  1
  2 28  1  0
  2 29  1  0
  2 30  1  0
  3 31  1  0
  4 32  1  1
  7 33  1  0
  8 34  1  1
 10 35  1  6
 14 36  1  0
 14 37  1  0
 15 38  1  0
 15 39  1  0
 15 40  1  0
 17 41  1  0
 19 42  1  1
 21 43  1  0
 23 44  1  6
 24 45  1  0
 24 46  1  0
 24 47  1  0
 25 48  1  0
 25 49  1  0
 26 50  1  0
 26 51  1  0
 26 52  1  0
M  END
$$$$
