
     RDKit          3D

 53 57  0  0  0  0  0  0  0  0999 V2000
    2.4982   -0.8185   -1.4771 C   0  0  2  0  0  0  0  0  0  0  0  0
    1.9688   -1.8320   -2.3628 N   0  0  0  0  0  0  0  0  0  0  0  0
    1.6670    0.4134   -1.4215 C   0  0  0  0  0  0  0  0  0  0  0  0
    0.3897    0.1572   -0.9900 O   0  0  0  0  0  0  0  0  0  0  0  0
   -0.0853   -0.3402    0.1825 C   0  0  0  0  0  0  0  0  0  0  0  0
    0.4131   -0.7750    1.3779 C   0  0  0  0  0  0  0  0  0  0  0  0
   -0.3257   -1.2283    2.3840 N   0  0  0  0  0  0  0  0  0  0  0  0
   -1.6581   -1.2894    2.2859 C   0  0  0  0  0  0  0  0  0  0  0  0
   -2.2804   -0.8813    1.1366 C   0  0  0  0  0  0  0  0  0  0  0  0
   -1.4880   -0.4064    0.0847 C   0  0  0  0  0  0  0  0  0  0  0  0
   -3.7155   -0.9800    1.1152 C   0  0  0  0  0  0  0  0  0  0  0  0
   -4.4596   -1.9268    1.7588 C   0  0  0  0  0  0  0  0  0  0  0  0
   -5.8341   -1.8506    1.6215 C   0  0  0  0  0  0  0  0  0  0  0  0
   -6.5053   -0.8873    0.8816 C   0  0  0  0  0  0  0  0  0  0  0  0
   -7.7892   -0.6302    0.6190 N   0  0  0  0  0  0  0  0  0  0  0  0
   -7.8656    0.4465   -0.1671 N   0  0  0  0  0  0  0  0  0  0  0  0
   -6.6221    0.8994   -0.4225 C   0  0  0  0  0  0  0  0  0  0  0  0
   -6.2149    2.0710   -1.2469 C   0  0  0  0  0  0  0  0  0  0  0  0
   -5.7265    0.0577    0.2414 C   0  0  0  0  0  0  0  0  0  0  0  0
   -4.3437    0.0079    0.3600 C   0  0  0  0  0  0  0  0  0  0  0  0
    3.8414   -0.4060   -2.0915 C   0  0  0  0  0  0  0  0  0  0  0  0
    4.3817    0.6375   -1.1846 C   0  0  0  0  0  0  0  0  0  0  0  0
    4.3892    2.0057   -1.4551 C   0  0  0  0  0  0  0  0  0  0  0  0
    4.9585    2.6599   -0.4064 N   0  0  0  0  0  0  0  0  0  0  0  0
    5.3259    1.7721    0.5446 C   0  0  0  0  0  0  0  0  0  0  0  0
    5.9304    1.9104    1.7772 C   0  0  0  0  0  0  0  0  0  0  0  0
    6.1802    0.7756    2.5369 C   0  0  0  0  0  0  0  0  0  0  0  0
    5.8177   -0.4650    2.0410 C   0  0  0  0  0  0  0  0  0  0  0  0
    5.2050   -0.6259    0.7961 C   0  0  0  0  0  0  0  0  0  0  0  0
    4.9667    0.5246    0.0574 C   0  0  0  0  0  0  0  0  0  0  0  0
    2.6526   -1.2746   -0.5030 H   0  0  0  0  0  0  0  0  0  0  0  0
    0.9871   -1.6785   -2.6575 H   0  0  0  0  0  0  0  0  0  0  0  0
    2.2016   -2.7940   -2.0848 H   0  0  0  0  0  0  0  0  0  0  0  0
    1.7134    1.0076   -2.3639 H   0  0  0  0  0  0  0  0  0  0  0  0
    2.1343    1.1147   -0.6594 H   0  0  0  0  0  0  0  0  0  0  0  0
    1.4815   -0.6964    1.4094 H   0  0  0  0  0  0  0  0  0  0  0  0
   -2.1439   -1.6751    3.1683 H   0  0  0  0  0  0  0  0  0  0  0  0
   -2.1298   -0.1215   -0.7580 H   0  0  0  0  0  0  0  0  0  0  0  0
   -3.9598   -2.6718    2.3294 H   0  0  0  0  0  0  0  0  0  0  0  0
   -6.4413   -2.5855    2.1191 H   0  0  0  0  0  0  0  0  0  0  0  0
   -8.5841   -1.1838    0.9740 H   0  0  0  0  0  0  0  0  0  0  0  0
   -5.8022    2.8530   -0.5856 H   0  0  0  0  0  0  0  0  0  0  0  0
   -5.3675    1.7540   -1.9085 H   0  0  0  0  0  0  0  0  0  0  0  0
   -7.0871    2.4175   -1.8454 H   0  0  0  0  0  0  0  0  0  0  0  0
   -3.8516    0.8018   -0.1868 H   0  0  0  0  0  0  0  0  0  0  0  0
    4.5272   -1.2512   -2.1476 H   0  0  0  0  0  0  0  0  0  0  0  0
    3.6968   -0.0052   -3.1089 H   0  0  0  0  0  0  0  0  0  0  0  0
    3.9989    2.4824   -2.3684 H   0  0  0  0  0  0  0  0  0  0  0  0
    5.0836    3.6804   -0.3598 H   0  0  0  0  0  0  0  0  0  0  0  0
    6.2178    2.8814    2.1734 H   0  0  0  0  0  0  0  0  0  0  0  0
    6.6591    0.8747    3.5161 H   0  0  0  0  0  0  0  0  0  0  0  0
    6.0466   -1.2969    2.6936 H   0  0  0  0  0  0  0  0  0  0  0  0
    4.9472   -1.6290    0.4701 H   0  0  0  0  0  0  0  0  0  0  0  0
  1  2  1  0
  1  3  1  0
  3  4  1  0
  4  5  1  0
  5  6  2  0
  6  7  1  0
  7  8  2  0
  8  9  1  0
  9 10  2  0
  9 11  1  0
 11 12  2  0
 12 13  1  0
 13 14  2  0
 14 15  1  0
 15 16  1  0
 16 17  2  0
 17 18  1  0
 17 19  1  0
 19 20  2  0
  1 21  1  0
 21 22  1  0
 22 23  2  0
 23 24  1  0
 24 25  1  0
 25 26  2  0
 26 27  1  0
 27 28  2  0
 28 29  1  0
 29 30  2  0
 10  5  1  0
 20 11  1  0
 30 22  1  0
 19 14  1  0
 30 25  1  0
  1 31  1  1
  2 32  1  0
  2 33  1  0
  3 34  1  0
  3 35  1  0
  6 36  1  0
  8 37  1  0
 10 38  1  0
 12 39  1  0
 13 40  1  0
 15 41  1  0
 18 42  1  0
 18 43  1  0
 18 44  1  0
 20 45  1  0
 21 46  1  0
 21 47  1  0
 23 48  1  0
 24 49  1  0
 26 50  1  0
 27 51  1  0
 28 52  1  0
 29 53  1  0
M  END
$$$$
