
     RDKit          3D

 58 62  0  0  0  0  0  0  0  0999 V2000
   -2.8040   -0.6936    2.0024 O   0  0  0  0  0  0  0  0  0  0  0  0
   -2.5672   -0.1624    0.8990 C   0  0  0  0  0  0  0  0  0  0  0  0
   -3.7065    0.3540    0.0774 C   0  0  0  0  0  0  0  0  0  0  0  0
   -4.9868    0.1217    0.8159 C   0  0  0  0  0  0  0  0  0  0  0  0
   -6.1760    0.6094    0.0810 C   0  0  0  0  0  0  0  0  0  0  0  0
   -6.6417    1.8916   -0.0387 C   0  0  0  0  0  0  0  0  0  0  0  0
   -6.0908    3.0925    0.5541 C   0  0  0  0  0  0  0  0  0  0  0  0
   -5.0734    3.0379    1.2727 O   0  0  0  0  0  0  0  0  0  0  0  0
   -6.6786    4.3314    0.3388 O   0  0  0  0  0  0  0  0  0  0  0  0
   -7.7500    1.8384   -0.8270 N   0  0  0  0  0  0  0  0  0  0  0  0
   -7.9942    0.5882   -1.2007 C   0  0  0  0  0  0  0  0  0  0  0  0
   -9.0052    0.0494   -1.9980 C   0  0  0  0  0  0  0  0  0  0  0  0
   -8.9815   -1.3145   -2.2010 C   0  0  0  0  0  0  0  0  0  0  0  0
   -8.0014   -2.1055   -1.6396 C   0  0  0  0  0  0  0  0  0  0  0  0
   -7.0150   -1.5753   -0.8611 C   0  0  0  0  0  0  0  0  0  0  0  0
   -7.0251   -0.2024   -0.6470 C   0  0  0  0  0  0  0  0  0  0  0  0
   -1.2316   -0.0663    0.4632 N   0  0  0  0  0  0  0  0  0  0  0  0
   -0.0676   -0.5088    1.1321 C   0  0  0  0  0  0  0  0  0  0  0  0
   -0.0867   -1.1469    2.3369 C   0  0  0  0  0  0  0  0  0  0  0  0
    1.1298   -1.5409    2.9278 C   0  0  0  0  0  0  0  0  0  0  0  0
    2.3211   -1.2753    2.2789 C   0  0  0  0  0  0  0  0  0  0  0  0
    2.3747   -0.6352    1.0661 C   0  0  0  0  0  0  0  0  0  0  0  0
    3.6177   -0.3340    0.3549 C   0  0  0  0  0  0  0  0  0  0  0  0
    4.8213   -0.6220    0.7692 C   0  0  0  0  0  0  0  0  0  0  0  0
    6.0602   -0.3236    0.0643 C   0  0  0  0  0  0  0  0  0  0  0  0
    6.0967    0.3081   -1.1473 C   0  0  0  0  0  0  0  0  0  0  0  0
    7.2805    0.5907   -1.8115 C   0  0  0  0  0  0  0  0  0  0  0  0
    8.4534    0.2029   -1.1928 C   0  0  0  0  0  0  0  0  0  0  0  0
    9.6721    0.4621   -1.8156 C   0  0  0  0  0  0  0  0  0  0  0  0
   10.8619    0.0947   -1.2373 C   0  0  0  0  0  0  0  0  0  0  0  0
   10.8360   -0.5457   -0.0101 C   0  0  0  0  0  0  0  0  0  0  0  0
   12.3084   -1.0448    0.7900 Cl  0  0  0  0  0  0  0  0  0  0  0  0
    9.6243   -0.7961    0.5949 C   0  0  0  0  0  0  0  0  0  0  0  0
    8.4191   -0.4346    0.0296 C   0  0  0  0  0  0  0  0  0  0  0  0
    7.2384   -0.6743    0.6114 N   0  0  0  0  0  0  0  0  0  0  0  0
    1.1758   -0.2622    0.5125 C   0  0  0  0  0  0  0  0  0  0  0  0
   -3.7788   -0.1895   -0.8898 H   0  0  0  0  0  0  0  0  0  0  0  0
   -3.4913    1.3966   -0.1732 H   0  0  0  0  0  0  0  0  0  0  0  0
   -5.0933   -0.9454    1.0258 H   0  0  0  0  0  0  0  0  0  0  0  0
   -4.9437    0.7065    1.7689 H   0  0  0  0  0  0  0  0  0  0  0  0
   -6.3658    5.1452    0.8676 H   0  0  0  0  0  0  0  0  0  0  0  0
   -8.3034    2.6917   -1.0785 H   0  0  0  0  0  0  0  0  0  0  0  0
   -9.7625    0.6871   -2.4273 H   0  0  0  0  0  0  0  0  0  0  0  0
   -9.7553   -1.7929   -2.8213 H   0  0  0  0  0  0  0  0  0  0  0  0
   -7.9800   -3.1818   -1.7977 H   0  0  0  0  0  0  0  0  0  0  0  0
   -6.2300   -2.1798   -0.4068 H   0  0  0  0  0  0  0  0  0  0  0  0
   -1.1213    0.4057   -0.4990 H   0  0  0  0  0  0  0  0  0  0  0  0
   -1.0062   -1.3589    2.8465 H   0  0  0  0  0  0  0  0  0  0  0  0
    1.0807   -2.0470    3.8879 H   0  0  0  0  0  0  0  0  0  0  0  0
    3.2525   -1.5848    2.7459 H   0  0  0  0  0  0  0  0  0  0  0  0
    3.5449    0.1732   -0.6025 H   0  0  0  0  0  0  0  0  0  0  0  0
    4.8709   -1.1385    1.7467 H   0  0  0  0  0  0  0  0  0  0  0  0
    5.1823    0.6117   -1.6330 H   0  0  0  0  0  0  0  0  0  0  0  0
    7.2906    1.0936   -2.7745 H   0  0  0  0  0  0  0  0  0  0  0  0
    9.6552    0.9662   -2.7773 H   0  0  0  0  0  0  0  0  0  0  0  0
   11.8002    0.2918   -1.7119 H   0  0  0  0  0  0  0  0  0  0  0  0
    9.5518   -1.3023    1.5705 H   0  0  0  0  0  0  0  0  0  0  0  0
    1.1946    0.2431   -0.4423 H   0  0  0  0  0  0  0  0  0  0  0  0
  1  2  2  0
  2  3  1  0
  3  4  1  0
  4  5  1  0
  5  6  2  0
  6  7  1  0
  7  8  2  0
  7  9  1  0
  6 10  1  0
 10 11  1  0
 11 12  2  0
 12 13  1  0
 13 14  2  0
 14 15  1  0
 15 16  2  0
  2 17  1  0
 17 18  1  0
 18 19  2  0
 19 20  1  0
 20 21  2  0
 21 22  1  0
 22 23  1  0
 23 24  2  0
 24 25  1  0
 25 26  2  0
 26 27  1  0
 27 28  2  0
 28 29  1  0
 29 30  2  0
 30 31  1  0
 31 32  1  0
 31 33  2  0
 33 34  1  0
 34 35  2  0
 22 36  2  0
 16  5  1  0
 36 18  1  0
 16 11  1  0
 35 25  1  0
 34 28  1  0
  3 37  1  0
  3 38  1  0
  4 39  1  0
  4 40  1  0
  9 41  1  0
 10 42  1  0
 12 43  1  0
 13 44  1  0
 14 45  1  0
 15 46  1  0
 17 47  1  0
 19 48  1  0
 20 49  1  0
 21 50  1  0
 23 51  1  0
 24 52  1  0
 26 53  1  0
 27 54  1  0
 29 55  1  0
 30 56  1  0
 33 57  1  0
 36 58  1  0
M  END
$$$$
