
     RDKit          3D

 39 43  0  0  0  0  0  0  0  0999 V2000
    1.2485   -0.5045   -4.4149 N   0  0  0  0  0  0  0  0  0  0  0  0
    1.9387   -0.9072   -3.6196 C   0  0  0  0  0  0  0  0  0  0  0  0
    2.8320   -1.4536   -2.5914 C   0  0  0  0  0  0  0  0  0  0  0  0
    3.9650   -2.0804   -3.0559 C   0  0  0  0  0  0  0  0  0  0  0  0
    4.8257   -2.6683   -2.1331 C   0  0  0  0  0  0  0  0  0  0  0  0
    4.5136   -2.6007   -0.7822 C   0  0  0  0  0  0  0  0  0  0  0  0
    3.3879   -1.9769   -0.3155 C   0  0  0  0  0  0  0  0  0  0  0  0
    3.0638   -1.8965    1.0817 C   0  0  0  0  0  0  0  0  0  0  0  0
    2.7939   -1.8413    2.2262 N   0  0  0  0  0  0  0  0  0  0  0  0
    2.5141   -1.3803   -1.2634 C   0  0  0  0  0  0  0  0  0  0  0  0
    1.3612   -0.6747   -0.7463 C   0  0  0  0  0  0  0  0  0  0  0  0
    0.8841   -0.8568    0.5216 N   0  0  0  0  0  0  0  0  0  0  0  0
   -0.2108   -0.1412    0.7479 C   0  0  0  0  0  0  0  0  0  0  0  0
   -1.0500    0.0174    1.8396 C   0  0  0  0  0  0  0  0  0  0  0  0
   -0.7710   -0.6787    2.9847 C   0  0  0  0  0  0  0  0  0  0  0  0
   -1.5960   -0.5428    4.0888 C   0  0  0  0  0  0  0  0  0  0  0  0
   -2.7004    0.2952    4.0369 C   0  0  0  0  0  0  0  0  0  0  0  0
   -2.9840    0.9977    2.8869 C   0  0  0  0  0  0  0  0  0  0  0  0
   -2.1481    0.8528    1.7837 C   0  0  0  0  0  0  0  0  0  0  0  0
   -2.3809    1.5251    0.6010 C   0  0  0  0  0  0  0  0  0  0  0  0
   -3.4507    2.3796    0.4820 C   0  0  0  0  0  0  0  0  0  0  0  0
   -3.6660    3.0593   -0.7174 C   0  0  0  0  0  0  0  0  0  0  0  0
   -5.0364    4.1610   -0.8739 Cl  0  0  0  0  0  0  0  0  0  0  0  0
   -2.8535    2.9150   -1.7952 C   0  0  0  0  0  0  0  0  0  0  0  0
   -1.7776    2.0557   -1.6796 C   0  0  0  0  0  0  0  0  0  0  0  0
   -1.5590    1.3823   -0.4991 C   0  0  0  0  0  0  0  0  0  0  0  0
   -0.4695    0.5446   -0.4216 C   0  0  0  0  0  0  0  0  0  0  0  0
    0.5170    0.1879   -1.3039 N   0  0  0  0  0  0  0  0  0  0  0  0
    4.1577   -2.1003   -4.1117 H   0  0  0  0  0  0  0  0  0  0  0  0
    5.7263   -3.1767   -2.4326 H   0  0  0  0  0  0  0  0  0  0  0  0
    5.2019   -3.0642   -0.0936 H   0  0  0  0  0  0  0  0  0  0  0  0
    0.0884   -1.3257    3.0101 H   0  0  0  0  0  0  0  0  0  0  0  0
   -1.4104   -1.0784    5.0064 H   0  0  0  0  0  0  0  0  0  0  0  0
   -3.3344    0.3851    4.9155 H   0  0  0  0  0  0  0  0  0  0  0  0
   -3.8397    1.6346    2.8745 H   0  0  0  0  0  0  0  0  0  0  0  0
   -4.1541    2.5604    1.2899 H   0  0  0  0  0  0  0  0  0  0  0  0
   -3.0021    3.4373   -2.7394 H   0  0  0  0  0  0  0  0  0  0  0  0
   -1.1360    1.9422   -2.5414 H   0  0  0  0  0  0  0  0  0  0  0  0
    0.5111    0.6160   -2.2456 H   0  0  0  0  0  0  0  0  0  0  0  0
  1  2  3  0
  2  3  1  0
  3  4  2  0
  4  5  1  0
  5  6  2  0
  6  7  1  0
  7  8  1  0
  8  9  3  0
  7 10  2  0
 10 11  1  0
 11 12  2  0
 12 13  1  0
 13 14  2  0
 14 15  1  0
 15 16  2  0
 16 17  1  0
 17 18  2  0
 18 19  1  0
 19 20  2  0
 20 21  1  0
 21 22  2  0
 22 23  1  0
 22 24  1  0
 24 25  2  0
 25 26  1  0
 26 27  2  0
 27 28  1  0
 10  3  1  0
 28 11  1  0
 27 13  1  0
 19 14  1  0
 26 20  1  0
  4 29  1  0
  5 30  1  0
  6 31  1  0
 15 32  1  0
 16 33  1  0
 17 34  1  0
 18 35  1  0
 21 36  1  0
 24 37  1  0
 25 38  1  0
 28 39  1  0
M  END
$$$$
