
     RDKit          3D

 27 27  0  0  0  0  0  0  0  0999 V2000
    4.9680   -1.0686    0.1818 N   0  0  0  0  0  0  0  0  0  0  0  0
    3.9245   -0.2494   -0.3858 C   0  0  0  0  0  0  0  0  0  0  0  0
    3.8239    0.2622   -1.5892 N   0  0  0  0  0  0  0  0  0  0  0  0
    2.8182    0.0679    0.4830 N   0  0  0  0  0  0  0  0  0  0  0  0
    1.5294    0.2325   -0.0953 C   0  0  0  0  0  0  0  0  0  0  0  0
    1.1951   -0.2189   -1.2278 N   0  0  0  0  0  0  0  0  0  0  0  0
    0.4903    0.9450    0.6123 N   0  0  0  0  0  0  0  0  0  0  0  0
   -0.9079    0.7478    0.5217 C   0  0  0  0  0  0  0  0  0  0  0  0
   -1.7508    1.5635    1.2627 C   0  0  0  0  0  0  0  0  0  0  0  0
   -1.0625    2.8201    2.2848 Cl  0  0  0  0  0  0  0  0  0  0  0  0
   -3.1120    1.4300    1.2315 C   0  0  0  0  0  0  0  0  0  0  0  0
   -3.7333    0.4790    0.4640 C   0  0  0  0  0  0  0  0  0  0  0  0
   -2.9268   -0.3498   -0.2857 C   0  0  0  0  0  0  0  0  0  0  0  0
   -1.5607   -0.1927   -0.2348 C   0  0  0  0  0  0  0  0  0  0  0  0
   -3.5530   -1.3961   -1.1335 C   0  0  0  0  0  0  0  0  0  0  0  0
   -4.2344   -2.2872   -0.3051 F   0  0  0  0  0  0  0  0  0  0  0  0
   -2.6500   -2.0253   -1.9372 F   0  0  0  0  0  0  0  0  0  0  0  0
   -4.5517   -0.8194   -1.9280 F   0  0  0  0  0  0  0  0  0  0  0  0
    5.7949   -0.7178    0.7004 H   0  0  0  0  0  0  0  0  0  0  0  0
    4.8746   -2.1011    0.0548 H   0  0  0  0  0  0  0  0  0  0  0  0
    4.5718    0.0952   -2.2975 H   0  0  0  0  0  0  0  0  0  0  0  0
    2.9189    0.1835    1.5105 H   0  0  0  0  0  0  0  0  0  0  0  0
    1.8071   -0.7512   -1.8537 H   0  0  0  0  0  0  0  0  0  0  0  0
    0.8511    1.6927    1.2717 H   0  0  0  0  0  0  0  0  0  0  0  0
   -3.7225    2.0939    1.8301 H   0  0  0  0  0  0  0  0  0  0  0  0
   -4.8125    0.4291    0.4865 H   0  0  0  0  0  0  0  0  0  0  0  0
   -0.9897   -0.8650   -0.8327 H   0  0  0  0  0  0  0  0  0  0  0  0
  1  2  1  0
  2  3  2  3
  2  4  1  0
  4  5  1  0
  5  6  2  3
  5  7  1  0
  7  8  1  0
  8  9  2  0
  9 10  1  0
  9 11  1  0
 11 12  2  0
 12 13  1  0
 13 14  2  0
 13 15  1  0
 15 16  1  0
 15 17  1  0
 15 18  1  0
 14  8  1  0
  1 19  1  0
  1 20  1  0
  3 21  1  0
  4 22  1  0
  6 23  1  0
  7 24  1  0
 11 25  1  0
 12 26  1  0
 14 27  1  0
M  END
$$$$
