
     RDKit          3D

 74 81  0  0  0  0  0  0  0  0999 V2000
   -9.7753    4.8485    0.7561 N   0  0  0  0  0  0  0  0  0  0  0  0
   -9.1537    3.6202    0.4072 C   0  0  0  0  0  0  0  0  0  0  0  0
   -9.7941    2.5388   -0.0783 N   0  0  0  0  0  0  0  0  0  0  0  0
   -8.9172    1.5725   -0.2940 N   0  0  0  0  0  0  0  0  0  0  0  0
   -7.6906    2.0056    0.0464 C   0  0  0  0  0  0  0  0  0  0  0  0
   -6.4663    1.3708    0.0023 C   0  0  0  0  0  0  0  0  0  0  0  0
   -6.3188    0.0704   -0.4429 C   0  0  0  0  0  0  0  0  0  0  0  0
   -5.0906   -0.5693   -0.4875 C   0  0  0  0  0  0  0  0  0  0  0  0
   -4.9475   -1.9414   -0.9591 C   0  0  0  0  0  0  0  0  0  0  0  0
   -4.4891   -2.9769   -0.1722 C   0  0  0  0  0  0  0  0  0  0  0  0
   -4.3674   -4.2668   -0.6539 C   0  0  0  0  0  0  0  0  0  0  0  0
   -4.7056   -4.5660   -1.9582 C   0  0  0  0  0  0  0  0  0  0  0  0
   -5.1662   -3.5405   -2.7589 C   0  0  0  0  0  0  0  0  0  0  0  0
   -5.2828   -2.2502   -2.2604 C   0  0  0  0  0  0  0  0  0  0  0  0
   -3.9952    0.1553   -0.0619 C   0  0  0  0  0  0  0  0  0  0  0  0
   -2.6748   -0.4635   -0.0837 C   0  0  0  0  0  0  0  0  0  0  0  0
   -2.0376   -0.8920   -1.2239 C   0  0  0  0  0  0  0  0  0  0  0  0
   -0.7902   -1.4710   -1.1952 C   0  0  0  0  0  0  0  0  0  0  0  0
   -0.1129   -1.6483    0.0115 C   0  0  0  0  0  0  0  0  0  0  0  0
    1.2290   -2.2833    0.0058 C   0  0  0  0  0  0  0  0  0  0  0  0
    2.2572   -1.3194   -0.1792 N   0  0  0  0  0  0  0  0  0  0  0  0
    3.5865   -1.8798   -0.2089 C   0  0  0  0  0  0  0  0  0  0  0  0
    4.3454   -1.6981    1.0607 C   0  0  0  0  0  0  0  0  0  0  0  0
    4.3889   -0.3115    1.6042 C   0  0  0  0  0  0  0  0  0  0  0  0
    5.7670    0.2162    1.6939 C   0  0  0  0  0  0  0  0  0  0  0  0
    6.3557    0.6271    2.8231 N   0  0  0  0  0  0  0  0  0  0  0  0
    7.5843    1.0315    2.5287 N   0  0  0  0  0  0  0  0  0  0  0  0
    7.7967    0.8843    1.2068 C   0  0  0  0  0  0  0  0  0  0  0  0
    9.0264    1.2185    0.5086 C   0  0  0  0  0  0  0  0  0  0  0  0
   10.1255    1.7332    1.1454 C   0  0  0  0  0  0  0  0  0  0  0  0
   11.2942    2.0476    0.4697 C   0  0  0  0  0  0  0  0  0  0  0  0
   11.3723    1.8418   -0.8924 C   0  0  0  0  0  0  0  0  0  0  0  0
   10.2490    1.3219   -1.5074 C   0  0  0  0  0  0  0  0  0  0  0  0
    9.1202    1.0234   -0.8255 N   0  0  0  0  0  0  0  0  0  0  0  0
    6.6598    0.3801    0.7185 N   0  0  0  0  0  0  0  0  0  0  0  0
    3.5048    0.5736    0.7404 C   0  0  0  0  0  0  0  0  0  0  0  0
    2.1707   -0.1449    0.6546 C   0  0  0  0  0  0  0  0  0  0  0  0
   -0.7290   -1.2299    1.1506 C   0  0  0  0  0  0  0  0  0  0  0  0
   -1.9968   -0.6435    1.1026 C   0  0  0  0  0  0  0  0  0  0  0  0
   -4.1482    1.4403    0.3769 N   0  0  0  0  0  0  0  0  0  0  0  0
   -5.3373    2.0517    0.4173 C   0  0  0  0  0  0  0  0  0  0  0  0
   -5.5051    3.3485    0.8587 C   0  0  0  0  0  0  0  0  0  0  0  0
   -6.7651    3.9477    0.8845 C   0  0  0  0  0  0  0  0  0  0  0  0
   -7.8558    3.2697    0.4764 N   0  0  0  0  0  0  0  0  0  0  0  0
  -10.1248    5.4543   -0.0157 H   0  0  0  0  0  0  0  0  0  0  0  0
   -9.9116    5.1965    1.7285 H   0  0  0  0  0  0  0  0  0  0  0  0
   -7.1834   -0.4966   -0.7771 H   0  0  0  0  0  0  0  0  0  0  0  0
   -4.2248   -2.7558    0.8383 H   0  0  0  0  0  0  0  0  0  0  0  0
   -4.0100   -5.0919   -0.0525 H   0  0  0  0  0  0  0  0  0  0  0  0
   -4.6078   -5.5799   -2.3300 H   0  0  0  0  0  0  0  0  0  0  0  0
   -5.4276   -3.7887   -3.7782 H   0  0  0  0  0  0  0  0  0  0  0  0
   -5.6439   -1.4813   -2.9121 H   0  0  0  0  0  0  0  0  0  0  0  0
   -2.5406   -0.7658   -2.1680 H   0  0  0  0  0  0  0  0  0  0  0  0
   -0.3189   -1.7940   -2.0920 H   0  0  0  0  0  0  0  0  0  0  0  0
    1.3532   -2.8505    0.9531 H   0  0  0  0  0  0  0  0  0  0  0  0
    1.2793   -3.0276   -0.8113 H   0  0  0  0  0  0  0  0  0  0  0  0
    3.4550   -2.9841   -0.3567 H   0  0  0  0  0  0  0  0  0  0  0  0
    4.1182   -1.5232   -1.1042 H   0  0  0  0  0  0  0  0  0  0  0  0
    4.0127   -2.4471    1.8349 H   0  0  0  0  0  0  0  0  0  0  0  0
    5.4123   -1.9956    0.8311 H   0  0  0  0  0  0  0  0  0  0  0  0
    3.9019   -0.3362    2.6103 H   0  0  0  0  0  0  0  0  0  0  0  0
   10.0920    1.9038    2.2079 H   0  0  0  0  0  0  0  0  0  0  0  0
   12.1571    2.4534    0.9809 H   0  0  0  0  0  0  0  0  0  0  0  0
   12.2830    2.0861   -1.4226 H   0  0  0  0  0  0  0  0  0  0  0  0
   10.2636    1.1442   -2.5715 H   0  0  0  0  0  0  0  0  0  0  0  0
    6.5262    0.1566   -0.3014 H   0  0  0  0  0  0  0  0  0  0  0  0
    3.3339    1.5121    1.2898 H   0  0  0  0  0  0  0  0  0  0  0  0
    3.9369    0.7488   -0.2630 H   0  0  0  0  0  0  0  0  0  0  0  0
    1.3617    0.4977    0.2974 H   0  0  0  0  0  0  0  0  0  0  0  0
    1.9293   -0.4649    1.6859 H   0  0  0  0  0  0  0  0  0  0  0  0
   -0.2305   -1.3565    2.1110 H   0  0  0  0  0  0  0  0  0  0  0  0
   -2.4098   -0.3420    2.0479 H   0  0  0  0  0  0  0  0  0  0  0  0
   -4.6363    3.9166    1.1939 H   0  0  0  0  0  0  0  0  0  0  0  0
   -6.8666    4.9687    1.2364 H   0  0  0  0  0  0  0  0  0  0  0  0
  1  2  1  0
  2  3  2  0
  3  4  1  0
  4  5  2  0
  5  6  1  0
  6  7  2  0
  7  8  1  0
  8  9  1  0
  9 10  2  0
 10 11  1  0
 11 12  2  0
 12 13  1  0
 13 14  2  0
  8 15  2  0
 15 16  1  0
 16 17  2  0
 17 18  1  0
 18 19  2  0
 19 20  1  0
 20 21  1  0
 21 22  1  0
 22 23  1  0
 23 24  1  0
 24 25  1  0
 25 26  2  0
 26 27  1  0
 27 28  2  0
 28 29  1  0
 29 30  2  0
 30 31  1  0
 31 32  2  0
 32 33  1  0
 33 34  2  0
 28 35  1  0
 24 36  1  0
 36 37  1  0
 19 38  1  0
 38 39  2  0
 15 40  1  0
 40 41  2  0
 41 42  1  0
 42 43  2  0
 43 44  1  0
 44  2  1  0
 44  5  1  0
 41  6  1  0
 14  9  1  0
 39 16  1  0
 37 21  1  0
 35 25  1  0
 34 29  1  0
  1 45  1  0
  1 46  1  0
  7 47  1  0
 10 48  1  0
 11 49  1  0
 12 50  1  0
 13 51  1  0
 14 52  1  0
 17 53  1  0
 18 54  1  0
 20 55  1  0
 20 56  1  0
 22 57  1  0
 22 58  1  0
 23 59  1  0
 23 60  1  0
 24 61  1  0
 30 62  1  0
 31 63  1  0
 32 64  1  0
 33 65  1  0
 35 66  1  0
 36 67  1  0
 36 68  1  0
 37 69  1  0
 37 70  1  0
 38 71  1  0
 39 72  1  0
 42 73  1  0
 43 74  1  0
M  END
$$$$
