
     RDKit          3D

 62 63  0  0  0  0  0  0  0  0999 V2000
   -1.6062    1.0199   -0.8546 C   0  0  1  0  0  0  0  0  0  0  0  0
   -1.7113    2.4829   -1.2232 C   0  0  0  0  0  0  0  0  0  0  0  0
   -2.8350    3.1574   -0.5349 C   0  0  0  0  0  0  0  0  0  0  0  0
   -2.7131    3.7700    0.6939 C   0  0  0  0  0  0  0  0  0  0  0  0
   -3.7652    4.4033    1.3433 C   0  0  0  0  0  0  0  0  0  0  0  0
   -4.9980    4.4162    0.7180 C   0  0  0  0  0  0  0  0  0  0  0  0
   -5.1194    3.7983   -0.5206 C   0  0  0  0  0  0  0  0  0  0  0  0
   -4.0713    3.1733   -1.1566 C   0  0  0  0  0  0  0  0  0  0  0  0
   -2.8406    0.3394   -1.2252 N   0  0  0  0  0  0  0  0  0  0  0  0
   -3.7029   -0.2873   -0.2876 C   0  0  0  0  0  0  0  0  0  0  0  0
   -3.4350   -0.2848    0.9493 O   0  0  0  0  0  0  0  0  0  0  0  0
   -4.9046   -0.9229   -0.8667 C   0  0  0  0  0  0  0  0  0  0  0  0
   -5.7783   -1.5291    0.2142 C   0  0  0  0  0  0  0  0  0  0  0  0
   -7.0082   -2.1801   -0.4045 C   0  0  0  0  0  0  0  0  0  0  0  0
   -7.8946   -2.7846    0.6257 C   0  0  0  0  0  0  0  0  0  0  0  0
   -9.1044   -2.3241    1.1193 O   0  0  0  0  0  0  0  0  0  0  0  0
   -7.4049   -3.8780    1.0691 O   0  0  0  0  0  0  0  0  0  0  0  0
   -0.2349    0.3135   -1.8037 P   0  0  2  0  0  5  0  0  0  0  0  0
    0.3569    1.4459   -2.9426 O   0  0  0  0  0  0  0  0  0  0  0  0
   -0.6884   -0.8696   -2.6275 O   0  0  0  0  0  0  0  0  0  0  0  0
    1.0213   -0.2213   -0.8057 O   0  0  0  0  0  0  0  0  0  0  0  0
    2.2591    0.1678   -1.2617 C   0  0  0  0  0  0  0  0  0  0  0  0
    3.3127   -0.2662   -0.3462 C   0  0  0  0  0  0  0  0  0  0  0  0
    3.1987   -0.9178    0.7431 O   0  0  0  0  0  0  0  0  0  0  0  0
    4.6677    0.0516   -0.6583 N   0  0  0  0  0  0  0  0  0  0  0  0
    5.7829   -0.3164    0.1553 C   0  0  0  0  0  0  0  0  0  0  0  0
    5.9482   -1.8091    0.3467 C   0  0  0  0  0  0  0  0  0  0  0  0
    7.1572   -1.9737    1.2112 C   0  0  0  0  0  0  0  0  0  0  0  0
    7.1217   -2.0207    2.5833 C   0  0  0  0  0  0  0  0  0  0  0  0
    8.3173   -2.1727    3.2518 C   0  0  0  0  0  0  0  0  0  0  0  0
    9.5525   -2.2832    2.6862 C   0  0  0  0  0  0  0  0  0  0  0  0
    9.5867   -2.2351    1.2920 C   0  0  0  0  0  0  0  0  0  0  0  0
    8.4070   -2.0843    0.5958 C   0  0  0  0  0  0  0  0  0  0  0  0
   -1.4974    0.8821    0.2453 H   0  0  0  0  0  0  0  0  0  0  0  0
   -1.8724    2.5237   -2.3027 H   0  0  0  0  0  0  0  0  0  0  0  0
   -0.7888    3.0045   -0.9734 H   0  0  0  0  0  0  0  0  0  0  0  0
   -1.7226    3.7244    1.1285 H   0  0  0  0  0  0  0  0  0  0  0  0
   -3.6360    4.8743    2.3064 H   0  0  0  0  0  0  0  0  0  0  0  0
   -5.8707    4.8889    1.1602 H   0  0  0  0  0  0  0  0  0  0  0  0
   -6.0948    3.8078   -1.0138 H   0  0  0  0  0  0  0  0  0  0  0  0
   -4.2116    2.7048   -2.1192 H   0  0  0  0  0  0  0  0  0  0  0  0
   -3.0428    0.3513   -2.2519 H   0  0  0  0  0  0  0  0  0  0  0  0
   -4.6265   -1.7805   -1.5360 H   0  0  0  0  0  0  0  0  0  0  0  0
   -5.4862   -0.1780   -1.4358 H   0  0  0  0  0  0  0  0  0  0  0  0
   -6.1461   -0.7508    0.9206 H   0  0  0  0  0  0  0  0  0  0  0  0
   -5.2579   -2.2813    0.8060 H   0  0  0  0  0  0  0  0  0  0  0  0
   -6.6338   -2.9656   -1.1113 H   0  0  0  0  0  0  0  0  0  0  0  0
   -7.5423   -1.4027   -0.9726 H   0  0  0  0  0  0  0  0  0  0  0  0
   -9.3880   -2.5388    2.0800 H   0  0  0  0  0  0  0  0  0  0  0  0
   -0.2351    1.4831   -3.7346 H   0  0  0  0  0  0  0  0  0  0  0  0
    2.4723   -0.1208   -2.3124 H   0  0  0  0  0  0  0  0  0  0  0  0
    2.2391    1.2949   -1.2932 H   0  0  0  0  0  0  0  0  0  0  0  0
    4.8360    0.5976   -1.5575 H   0  0  0  0  0  0  0  0  0  0  0  0
    5.7528    0.2134    1.1343 H   0  0  0  0  0  0  0  0  0  0  0  0
    6.7170    0.0305   -0.3281 H   0  0  0  0  0  0  0  0  0  0  0  0
    6.1769   -2.3174   -0.6105 H   0  0  0  0  0  0  0  0  0  0  0  0
    5.0725   -2.3126    0.7719 H   0  0  0  0  0  0  0  0  0  0  0  0
    6.1606   -1.9366    3.0827 H   0  0  0  0  0  0  0  0  0  0  0  0
    8.3214   -2.2135    4.3498 H   0  0  0  0  0  0  0  0  0  0  0  0
   10.4658   -2.4000    3.2477 H   0  0  0  0  0  0  0  0  0  0  0  0
   10.5333   -2.3145    0.7462 H   0  0  0  0  0  0  0  0  0  0  0  0
    8.4315   -2.0470   -0.5053 H   0  0  0  0  0  0  0  0  0  0  0  0
  1  2  1  0
  2  3  1  0
  3  4  2  0
  4  5  1  0
  5  6  2  0
  6  7  1  0
  7  8  2  0
  1  9  1  0
  9 10  1  0
 10 11  2  0
 10 12  1  0
 12 13  1  0
 13 14  1  0
 14 15  1  0
 15 16  1  0
 15 17  2  0
  1 18  1  0
 18 19  1  6
 18 20  2  0
 18 21  1  0
 21 22  1  0
 22 23  1  0
 23 24  2  0
 23 25  1  0
 25 26  1  0
 26 27  1  0
 27 28  1  0
 28 29  2  0
 29 30  1  0
 30 31  2  0
 31 32  1  0
 32 33  2  0
  8  3  1  0
 33 28  1  0
  1 34  1  1
  2 35  1  0
  2 36  1  0
  4 37  1  0
  5 38  1  0
  6 39  1  0
  7 40  1  0
  8 41  1  0
  9 42  1  0
 12 43  1  0
 12 44  1  0
 13 45  1  0
 13 46  1  0
 14 47  1  0
 14 48  1  0
 16 49  1  0
 19 50  1  0
 22 51  1  0
 22 52  1  0
 25 53  1  0
 26 54  1  0
 26 55  1  0
 27 56  1  0
 27 57  1  0
 29 58  1  0
 30 59  1  0
 31 60  1  0
 32 61  1  0
 33 62  1  0
M  END
$$$$
