
     RDKit          3D

 53 58  0  0  0  0  0  0  0  0999 V2000
    4.2634   -0.6682    2.8932 Cl  0  0  0  0  0  0  0  0  0  0  0  0
    3.3987   -0.3326    1.4148 C   0  0  0  0  0  0  0  0  0  0  0  0
    2.0426   -0.0796    1.4974 C   0  0  0  0  0  0  0  0  0  0  0  0
    1.3203    0.1903    0.3539 C   0  0  0  0  0  0  0  0  0  0  0  0
   -0.1112    0.4642    0.3800 C   0  0  0  0  0  0  0  0  0  0  0  0
   -0.8780    0.0964   -0.7038 C   0  0  0  0  0  0  0  0  0  0  0  0
   -2.2230    0.3297   -0.7300 N   0  0  0  0  0  0  0  0  0  0  0  0
   -2.7964    0.9314    0.3309 C   0  0  0  0  0  0  0  0  0  0  0  0
   -4.1035    1.2750    0.5560 C   0  0  0  0  0  0  0  0  0  0  0  0
   -5.2465    1.0618   -0.3440 C   0  0  0  0  0  0  0  0  0  0  0  0
   -5.5719    2.0421   -1.2567 C   0  0  0  0  0  0  0  0  0  0  0  0
   -6.6565    1.8578   -2.1209 C   0  0  0  0  0  0  0  0  0  0  0  0
   -7.4233    0.7138   -2.0923 C   0  0  0  0  0  0  0  0  0  0  0  0
   -7.0926   -0.2630   -1.1769 C   0  0  0  0  0  0  0  0  0  0  0  0
   -7.8419   -1.3801   -1.1497 N   0  0  0  0  0  0  0  0  0  0  0  0
   -7.5115   -2.3267   -0.2536 C   0  0  0  0  0  0  0  0  0  0  0  0
   -6.4515   -2.1875    0.6169 C   0  0  0  0  0  0  0  0  0  0  0  0
   -5.6781   -1.0471    0.5966 C   0  0  0  0  0  0  0  0  0  0  0  0
   -6.0147   -0.0777   -0.3194 C   0  0  0  0  0  0  0  0  0  0  0  0
   -4.1384    1.8650    1.8022 C   0  0  0  0  0  0  0  0  0  0  0  0
   -2.8927    1.8728    2.3033 N   0  0  0  0  0  0  0  0  0  0  0  0
   -2.0936    1.3101    1.4129 N   0  0  0  0  0  0  0  0  0  0  0  0
   -0.7490    1.0762    1.4374 C   0  0  0  0  0  0  0  0  0  0  0  0
    2.0148    0.1923   -0.8463 C   0  0  0  0  0  0  0  0  0  0  0  0
    3.3672   -0.0615   -0.9159 C   0  0  0  0  0  0  0  0  0  0  0  0
    4.0882   -0.3322    0.2372 C   0  0  0  0  0  0  0  0  0  0  0  0
    5.4819   -0.5908    0.1416 N   0  0  0  0  0  0  0  0  0  0  0  0
    6.3904    0.2792    0.8458 C   0  0  0  0  0  0  0  0  0  0  0  0
    7.7653    0.3179    0.2011 C   0  0  0  0  0  0  0  0  0  0  0  0
    7.5930   -0.0338   -1.1962 N   0  0  0  0  0  0  0  0  0  0  0  0
    7.3159   -1.4789   -1.2204 C   0  0  0  0  0  0  0  0  0  0  0  0
    5.9302   -1.7173   -0.6591 C   0  0  0  0  0  0  0  0  0  0  0  0
    1.5247   -0.0866    2.4413 H   0  0  0  0  0  0  0  0  0  0  0  0
   -0.4135   -0.3777   -1.5351 H   0  0  0  0  0  0  0  0  0  0  0  0
   -4.9854    2.9538   -1.3016 H   0  0  0  0  0  0  0  0  0  0  0  0
   -6.9315    2.6231   -2.8527 H   0  0  0  0  0  0  0  0  0  0  0  0
   -8.2709    0.5577   -2.7605 H   0  0  0  0  0  0  0  0  0  0  0  0
   -8.1167   -3.2167   -0.2399 H   0  0  0  0  0  0  0  0  0  0  0  0
   -6.2308   -2.9804    1.3168 H   0  0  0  0  0  0  0  0  0  0  0  0
   -4.8564   -0.9157    1.2566 H   0  0  0  0  0  0  0  0  0  0  0  0
   -5.0505    2.2410    2.2503 H   0  0  0  0  0  0  0  0  0  0  0  0
   -0.1463    1.3619    2.2819 H   0  0  0  0  0  0  0  0  0  0  0  0
    1.4661    0.4045   -1.7769 H   0  0  0  0  0  0  0  0  0  0  0  0
    3.9111   -0.0584   -1.8700 H   0  0  0  0  0  0  0  0  0  0  0  0
    6.5352   -0.0985    1.8853 H   0  0  0  0  0  0  0  0  0  0  0  0
    6.0431    1.3176    0.9289 H   0  0  0  0  0  0  0  0  0  0  0  0
    8.4272   -0.4233    0.6926 H   0  0  0  0  0  0  0  0  0  0  0  0
    8.1884    1.3441    0.2207 H   0  0  0  0  0  0  0  0  0  0  0  0
    6.6980    0.4076   -1.5597 H   0  0  0  0  0  0  0  0  0  0  0  0
    8.0663   -1.9448   -0.5373 H   0  0  0  0  0  0  0  0  0  0  0  0
    7.4528   -1.8568   -2.2316 H   0  0  0  0  0  0  0  0  0  0  0  0
    5.2217   -1.8900   -1.4945 H   0  0  0  0  0  0  0  0  0  0  0  0
    5.9699   -2.6614   -0.0753 H   0  0  0  0  0  0  0  0  0  0  0  0
  1  2  1  0
  2  3  2  0
  3  4  1  0
  4  5  1  0
  5  6  1  0
  6  7  2  0
  7  8  1  0
  8  9  2  0
  9 10  1  0
 10 11  2  0
 11 12  1  0
 12 13  2  0
 13 14  1  0
 14 15  2  0
 15 16  1  0
 16 17  2  0
 17 18  1  0
 18 19  2  0
  9 20  1  0
 20 21  2  0
 21 22  1  0
 22 23  1  0
  4 24  2  0
 24 25  1  0
 25 26  2  0
 26 27  1  0
 27 28  1  0
 28 29  1  0
 29 30  1  0
 30 31  1  0
 31 32  1  0
 26  2  1  0
 32 27  1  0
 23  5  2  0
 22  8  1  0
 19 10  1  0
 19 14  1  0
  3 33  1  0
  6 34  1  0
 11 35  1  0
 12 36  1  0
 13 37  1  0
 16 38  1  0
 17 39  1  0
 18 40  1  0
 20 41  1  0
 23 42  1  0
 24 43  1  0
 25 44  1  0
 28 45  1  0
 28 46  1  0
 29 47  1  0
 29 48  1  0
 30 49  1  0
 31 50  1  0
 31 51  1  0
 32 52  1  0
 32 53  1  0
M  END
$$$$
