
     RDKit          3D

 58 61  0  0  0  0  0  0  0  0999 V2000
   -4.8779    1.4351    2.1376 C   0  0  0  0  0  0  0  0  0  0  0  0
   -4.3764    1.0969    0.8861 O   0  0  0  0  0  0  0  0  0  0  0  0
   -3.1435    0.4706    0.7607 C   0  0  0  0  0  0  0  0  0  0  0  0
   -2.4258    0.1920    1.9231 C   0  0  0  0  0  0  0  0  0  0  0  0
   -1.2028   -0.4250    1.8614 C   0  0  0  0  0  0  0  0  0  0  0  0
   -0.6163   -0.8015    0.6719 C   0  0  0  0  0  0  0  0  0  0  0  0
    0.7168   -1.4674    0.6318 C   0  0  0  0  0  0  0  0  0  0  0  0
    1.6354   -0.8356   -0.3318 C   0  0  0  0  0  0  0  0  0  0  0  0
    1.6487   -1.2821   -1.6333 C   0  0  0  0  0  0  0  0  0  0  0  0
    2.4885   -0.7278   -2.5961 C   0  0  0  0  0  0  0  0  0  0  0  0
    3.3420    0.3011   -2.2590 C   0  0  0  0  0  0  0  0  0  0  0  0
    3.3427    0.7622   -0.9582 C   0  0  0  0  0  0  0  0  0  0  0  0
    4.2316    1.8530   -0.5541 C   0  0  0  0  0  0  0  0  0  0  0  0
    4.6019    2.8667   -1.4136 C   0  0  0  0  0  0  0  0  0  0  0  0
    5.4340    3.8958   -1.0501 C   0  0  0  0  0  0  0  0  0  0  0  0
    5.9228    3.9076    0.2527 C   0  0  0  0  0  0  0  0  0  0  0  0
    5.5615    2.9196    1.0894 N   0  0  0  0  0  0  0  0  0  0  0  0
    4.7393    1.9053    0.7253 C   0  0  0  0  0  0  0  0  0  0  0  0
    2.4956    0.1934   -0.0144 C   0  0  0  0  0  0  0  0  0  0  0  0
    0.4935   -2.8673    0.3174 N   0  0  0  0  0  0  0  0  0  0  0  0
    0.8043   -3.6399    1.2932 C   0  0  0  0  0  0  0  0  0  0  0  0
    0.6690   -5.0531    1.2178 N   0  0  0  0  0  0  0  0  0  0  0  0
    1.2789   -2.8766    2.3705 N   0  0  0  0  0  0  0  0  0  0  0  0
    1.7278   -3.4187    3.6614 C   0  0  0  0  0  0  0  0  0  0  0  0
    1.2486   -1.5089    1.9970 C   0  0  0  0  0  0  0  0  0  0  0  0
    1.6344   -0.5955    2.7818 O   0  0  0  0  0  0  0  0  0  0  0  0
   -1.3256   -0.5253   -0.4623 C   0  0  0  0  0  0  0  0  0  0  0  0
   -2.5947    0.1113   -0.4493 C   0  0  0  0  0  0  0  0  0  0  0  0
   -3.2253    0.3454   -1.6204 O   0  0  0  0  0  0  0  0  0  0  0  0
   -4.3853    0.9006   -2.0127 C   0  0  0  0  0  0  0  0  0  0  0  0
   -5.3062   -0.0623   -2.7749 C   0  0  0  0  0  0  0  0  0  0  0  0
   -4.1972    2.0783   -2.9743 C   0  0  0  0  0  0  0  0  0  0  0  0
   -4.2063    2.1045    2.7224 H   0  0  0  0  0  0  0  0  0  0  0  0
   -5.8589    1.9615    1.9959 H   0  0  0  0  0  0  0  0  0  0  0  0
   -5.0571    0.4913    2.7194 H   0  0  0  0  0  0  0  0  0  0  0  0
   -2.8902    0.4898    2.8606 H   0  0  0  0  0  0  0  0  0  0  0  0
   -0.6722   -0.6297    2.7851 H   0  0  0  0  0  0  0  0  0  0  0  0
    0.9935   -2.0882   -1.9262 H   0  0  0  0  0  0  0  0  0  0  0  0
    2.4844   -1.0923   -3.6139 H   0  0  0  0  0  0  0  0  0  0  0  0
    3.9989    0.7382   -3.0021 H   0  0  0  0  0  0  0  0  0  0  0  0
    4.2107    2.8376   -2.4207 H   0  0  0  0  0  0  0  0  0  0  0  0
    5.7027    4.6734   -1.7503 H   0  0  0  0  0  0  0  0  0  0  0  0
    6.5830    4.6866    0.6101 H   0  0  0  0  0  0  0  0  0  0  0  0
    4.4634    1.1207    1.4198 H   0  0  0  0  0  0  0  0  0  0  0  0
    2.5284    0.5776    0.9727 H   0  0  0  0  0  0  0  0  0  0  0  0
   -0.1321   -5.4851    1.7232 H   0  0  0  0  0  0  0  0  0  0  0  0
    1.3154   -5.6787    0.6931 H   0  0  0  0  0  0  0  0  0  0  0  0
    1.6730   -2.6114    4.4171 H   0  0  0  0  0  0  0  0  0  0  0  0
    2.7689   -3.8099    3.5317 H   0  0  0  0  0  0  0  0  0  0  0  0
    1.0119   -4.2275    3.9154 H   0  0  0  0  0  0  0  0  0  0  0  0
   -0.9455   -0.7841   -1.4487 H   0  0  0  0  0  0  0  0  0  0  0  0
   -5.0134    1.2856   -1.1927 H   0  0  0  0  0  0  0  0  0  0  0  0
   -5.8690   -0.7092   -2.0796 H   0  0  0  0  0  0  0  0  0  0  0  0
   -4.7528   -0.6204   -3.5556 H   0  0  0  0  0  0  0  0  0  0  0  0
   -6.0566    0.5679   -3.2930 H   0  0  0  0  0  0  0  0  0  0  0  0
   -3.9605    1.6932   -3.9668 H   0  0  0  0  0  0  0  0  0  0  0  0
   -5.1936    2.5799   -3.0355 H   0  0  0  0  0  0  0  0  0  0  0  0
   -3.4662    2.7808   -2.5558 H   0  0  0  0  0  0  0  0  0  0  0  0
  1  2  1  0
  2  3  1  0
  3  4  2  0
  4  5  1  0
  5  6  2  0
  6  7  1  0
  7  8  1  0
  8  9  2  0
  9 10  1  0
 10 11  2  0
 11 12  1  0
 12 13  1  0
 13 14  2  0
 14 15  1  0
 15 16  2  0
 16 17  1  0
 17 18  2  0
 12 19  2  0
  7 20  1  0
 20 21  2  0
 21 22  1  0
 21 23  1  0
 23 24  1  0
 23 25  1  0
 25 26  2  0
  6 27  1  0
 27 28  2  0
 28 29  1  0
 29 30  1  0
 30 31  1  0
 30 32  1  0
 28  3  1  0
 25  7  1  0
 19  8  1  0
 18 13  1  0
  1 33  1  0
  1 34  1  0
  1 35  1  0
  4 36  1  0
  5 37  1  0
  9 38  1  0
 10 39  1  0
 11 40  1  0
 14 41  1  0
 15 42  1  0
 16 43  1  0
 18 44  1  0
 19 45  1  0
 22 46  1  0
 22 47  1  0
 24 48  1  0
 24 49  1  0
 24 50  1  0
 27 51  1  0
 30 52  1  0
 31 53  1  0
 31 54  1  0
 31 55  1  0
 32 56  1  0
 32 57  1  0
 32 58  1  0
M  END
$$$$
