
     RDKit          3D

 54 56  0  0  0  0  0  0  0  0999 V2000
   -3.6839   -1.5347    1.1781 C   0  0  0  0  0  0  0  0  0  0  0  0
   -2.4094   -1.2403    0.4708 C   0  0  0  0  0  0  0  0  0  0  0  0
   -1.1673   -1.2831    1.1004 C   0  0  0  0  0  0  0  0  0  0  0  0
   -0.8789   -1.6158    2.5309 C   0  0  0  0  0  0  0  0  0  0  0  0
   -1.0033   -3.1070    2.6775 C   0  0  0  0  0  0  0  0  0  0  0  0
   -0.7186   -3.3632    4.0683 N   0  0  0  0  0  0  0  0  0  0  0  0
   -1.2968   -3.8323    1.7084 O   0  0  0  0  0  0  0  0  0  0  0  0
   -0.2733   -0.9514    0.1037 C   0  0  0  0  0  0  0  0  0  0  0  0
   -0.9160   -0.7118   -1.0914 C   0  0  0  0  0  0  0  0  0  0  0  0
   -0.1526   -0.3679   -2.1870 C   0  0  0  0  0  0  0  0  0  0  0  0
    1.2401   -0.2697   -2.0666 C   0  0  0  0  0  0  0  0  0  0  0  0
    1.9033   -0.5108   -0.8565 C   0  0  0  0  0  0  0  0  0  0  0  0
    3.2275   -0.3379   -1.0625 O   0  0  0  0  0  0  0  0  0  0  0  0
    4.2921   -0.4482   -0.1884 C   0  0  0  0  0  0  0  0  0  0  0  0
    4.3133    0.4758    0.9772 C   0  0  0  0  0  0  0  0  0  0  0  0
    4.3400    1.9421    0.5423 C   0  0  0  0  0  0  0  0  0  0  0  0
    5.8131    2.2875   -0.4555 P   0  0  0  0  0  0  0  0  0  0  0  0
    7.1650    1.6284    0.3177 O   0  0  0  0  0  0  0  0  0  0  0  0
    5.6587    1.6016   -1.9771 O   0  0  0  0  0  0  0  0  0  0  0  0
    5.9610    3.7781   -0.6103 O   0  0  0  0  0  0  0  0  0  0  0  0
    1.0957   -0.8505    0.2041 C   0  0  0  0  0  0  0  0  0  0  0  0
   -2.2185   -0.8968   -0.8318 N   0  0  0  0  0  0  0  0  0  0  0  0
   -3.2933   -0.7542   -1.7891 C   0  0  0  0  0  0  0  0  0  0  0  0
   -3.8026    0.6493   -1.7885 C   0  0  0  0  0  0  0  0  0  0  0  0
   -3.2971    1.6350   -2.6058 C   0  0  0  0  0  0  0  0  0  0  0  0
   -3.7362    2.9414   -2.6374 C   0  0  0  0  0  0  0  0  0  0  0  0
   -4.7687    3.2960   -1.7799 C   0  0  0  0  0  0  0  0  0  0  0  0
   -5.3126    2.3583   -0.9427 C   0  0  0  0  0  0  0  0  0  0  0  0
   -4.8250    1.0697   -0.9633 C   0  0  0  0  0  0  0  0  0  0  0  0
   -4.4292   -2.0380    0.5068 H   0  0  0  0  0  0  0  0  0  0  0  0
   -3.5164   -2.2413    2.0120 H   0  0  0  0  0  0  0  0  0  0  0  0
   -4.1460   -0.6222    1.6012 H   0  0  0  0  0  0  0  0  0  0  0  0
   -1.5160   -1.0573    3.2178 H   0  0  0  0  0  0  0  0  0  0  0  0
    0.1986   -1.3829    2.6941 H   0  0  0  0  0  0  0  0  0  0  0  0
   -0.3592   -4.3312    4.0585 H   0  0  0  0  0  0  0  0  0  0  0  0
   -0.3383   -4.3498    4.1612 H   0  0  0  0  0  0  0  0  0  0  0  0
   -0.7257   -0.1972   -3.0854 H   0  0  0  0  0  0  0  0  0  0  0  0
    1.6549    0.0134   -3.0474 H   0  0  0  0  0  0  0  0  0  0  0  0
    4.2828   -1.4939    0.2316 H   0  0  0  0  0  0  0  0  0  0  0  0
    5.2375   -0.3558   -0.7716 H   0  0  0  0  0  0  0  0  0  0  0  0
    3.4557    0.3859    1.6493 H   0  0  0  0  0  0  0  0  0  0  0  0
    5.2881    0.3219    1.5120 H   0  0  0  0  0  0  0  0  0  0  0  0
    3.4260    2.2496    0.0185 H   0  0  0  0  0  0  0  0  0  0  0  0
    4.4035    2.5408    1.4671 H   0  0  0  0  0  0  0  0  0  0  0  0
    7.0090    0.6809    0.4725 H   0  0  0  0  0  0  0  0  0  0  0  0
    6.4753    1.2291   -2.3503 H   0  0  0  0  0  0  0  0  0  0  0  0
    1.6773   -1.0267    1.0938 H   0  0  0  0  0  0  0  0  0  0  0  0
   -4.1285   -1.4461   -1.5548 H   0  0  0  0  0  0  0  0  0  0  0  0
   -2.8743   -0.9159   -2.8057 H   0  0  0  0  0  0  0  0  0  0  0  0
   -2.4931    1.4048   -3.2902 H   0  0  0  0  0  0  0  0  0  0  0  0
   -3.2933    3.6667   -3.3063 H   0  0  0  0  0  0  0  0  0  0  0  0
   -5.1458    4.3226   -1.7743 H   0  0  0  0  0  0  0  0  0  0  0  0
   -6.1043    2.6759   -0.3008 H   0  0  0  0  0  0  0  0  0  0  0  0
   -5.2942    0.3791   -0.2822 H   0  0  0  0  0  0  0  0  0  0  0  0
  1  2  1  0
  2  3  2  0
  3  4  1  0
  4  5  1  0
  5  6  1  0
  5  7  2  0
  3  8  1  0
  8  9  2  0
  9 10  1  0
 10 11  2  0
 11 12  1  0
 12 13  1  0
 13 14  1  0
 14 15  1  0
 15 16  1  0
 16 17  1  0
 17 18  1  0
 17 19  1  0
 17 20  2  0
 12 21  2  0
  9 22  1  0
 22 23  1  0
 23 24  1  0
 24 25  2  0
 25 26  1  0
 26 27  2  0
 27 28  1  0
 28 29  2  0
 22  2  1  0
 29 24  1  0
 21  8  1  0
  1 30  1  0
  1 31  1  0
  1 32  1  0
  4 33  1  0
  4 34  1  0
  6 35  1  0
  6 36  1  0
 10 37  1  0
 11 38  1  0
 14 39  1  0
 14 40  1  0
 15 41  1  0
 15 42  1  0
 16 43  1  0
 16 44  1  0
 18 45  1  0
 19 46  1  0
 21 47  1  0
 23 48  1  0
 23 49  1  0
 25 50  1  0
 26 51  1  0
 27 52  1  0
 28 53  1  0
 29 54  1  0
M  END
$$$$
