
     RDKit          3D

 54 57  0  0  0  0  0  0  0  0999 V2000
   -5.3746    4.6750    4.2753 C   0  0  0  0  0  0  0  0  0  0  0  0
   -4.9579    3.6566    3.2731 C   0  0  0  0  0  0  0  0  0  0  0  0
   -5.6367    2.7573    2.5201 C   0  0  0  0  0  0  0  0  0  0  0  0
   -4.9262    2.0029    1.7270 N   0  0  0  0  0  0  0  0  0  0  0  0
   -3.7521    2.0030    1.5790 C   0  0  0  0  0  0  0  0  0  0  0  0
   -2.6836    1.3216    0.8084 C   0  0  0  0  0  0  0  0  0  0  0  0
   -3.0984    0.3582   -0.0383 C   0  0  0  0  0  0  0  0  0  0  0  0
   -2.1565   -0.3353   -0.8046 C   0  0  0  0  0  0  0  0  0  0  0  0
   -2.5828   -1.3127   -1.6628 O   0  0  0  0  0  0  0  0  0  0  0  0
   -1.7442   -2.0616   -2.4681 C   0  0  1  0  0  0  0  0  0  0  0  0
   -2.0225   -3.5565   -2.1921 C   0  0  0  0  0  0  0  0  0  0  0  0
   -2.9315   -3.8876   -3.3548 C   0  0  0  0  0  0  0  0  0  0  0  0
   -2.2454   -3.2170   -4.3947 O   0  0  0  0  0  0  0  0  0  0  0  0
   -2.2817   -1.9167   -3.8978 C   0  0  0  0  0  0  0  0  0  0  0  0
   -0.8213   -0.0040   -0.6641 C   0  0  0  0  0  0  0  0  0  0  0  0
   -0.3841    0.9855    0.2042 C   0  0  0  0  0  0  0  0  0  0  0  0
    1.0010    1.3516    0.3710 C   0  0  0  0  0  0  0  0  0  0  0  0
    1.3039    2.2719    1.1937 O   0  0  0  0  0  0  0  0  0  0  0  0
    2.0815    0.7537   -0.3256 N   0  0  0  0  0  0  0  0  0  0  0  0
    3.4616    1.1499   -0.1299 C   0  0  2  0  0  0  0  0  0  0  0  0
    4.0823    1.7152   -1.3875 C   0  0  0  0  0  0  0  0  0  0  0  0
    4.2910    0.0274    0.3481 C   0  0  0  0  0  0  0  0  0  0  0  0
    5.1762    0.2164    1.3781 C   0  0  0  0  0  0  0  0  0  0  0  0
    5.9233   -0.8225    1.7971 N   0  0  0  0  0  0  0  0  0  0  0  0
    5.8261   -2.0383    1.2348 C   0  0  0  0  0  0  0  0  0  0  0  0
    6.6905   -3.1224    1.7634 C   0  0  0  0  0  0  0  0  0  0  0  0
    5.9412   -3.9829    2.5461 F   0  0  0  0  0  0  0  0  0  0  0  0
    7.2536   -3.8339    0.7096 F   0  0  0  0  0  0  0  0  0  0  0  0
    7.6998   -2.6010    2.5340 F   0  0  0  0  0  0  0  0  0  0  0  0
    4.9555   -2.2024    0.2301 N   0  0  0  0  0  0  0  0  0  0  0  0
    4.1860   -1.2096   -0.2304 C   0  0  0  0  0  0  0  0  0  0  0  0
   -1.3566    1.6398    0.9377 C   0  0  0  0  0  0  0  0  0  0  0  0
   -3.2359    3.3400    2.7608 S   0  0  0  0  0  0  0  0  0  0  0  0
   -6.2228    4.2347    4.8348 H   0  0  0  0  0  0  0  0  0  0  0  0
   -5.6894    5.6036    3.7479 H   0  0  0  0  0  0  0  0  0  0  0  0
   -4.5076    4.8465    4.9533 H   0  0  0  0  0  0  0  0  0  0  0  0
   -6.7375    2.6774    2.5842 H   0  0  0  0  0  0  0  0  0  0  0  0
   -4.1328    0.0679   -0.1784 H   0  0  0  0  0  0  0  0  0  0  0  0
   -0.6760   -1.8706   -2.4274 H   0  0  0  0  0  0  0  0  0  0  0  0
   -1.0699   -4.1332   -2.2634 H   0  0  0  0  0  0  0  0  0  0  0  0
   -2.5031   -3.6498   -1.2168 H   0  0  0  0  0  0  0  0  0  0  0  0
   -3.8960   -3.3725   -3.1696 H   0  0  0  0  0  0  0  0  0  0  0  0
   -3.0280   -4.9562   -3.5376 H   0  0  0  0  0  0  0  0  0  0  0  0
   -1.6783   -1.2135   -4.4915 H   0  0  0  0  0  0  0  0  0  0  0  0
   -3.3495   -1.6171   -3.8840 H   0  0  0  0  0  0  0  0  0  0  0  0
   -0.0643   -0.5186   -1.2399 H   0  0  0  0  0  0  0  0  0  0  0  0
    1.8616   -0.0010   -1.0043 H   0  0  0  0  0  0  0  0  0  0  0  0
    3.4870    1.9603    0.6271 H   0  0  0  0  0  0  0  0  0  0  0  0
    3.7617    2.7795   -1.5208 H   0  0  0  0  0  0  0  0  0  0  0  0
    3.8421    1.0855   -2.2503 H   0  0  0  0  0  0  0  0  0  0  0  0
    5.1790    1.7348   -1.2527 H   0  0  0  0  0  0  0  0  0  0  0  0
    5.3176    1.1526    1.8832 H   0  0  0  0  0  0  0  0  0  0  0  0
    3.4923   -1.3484   -1.0341 H   0  0  0  0  0  0  0  0  0  0  0  0
   -1.0676    2.4162    1.6256 H   0  0  0  0  0  0  0  0  0  0  0  0
  1  2  1  0
  2  3  2  0
  3  4  1  0
  4  5  2  0
  5  6  1  0
  6  7  2  0
  7  8  1  0
  8  9  1  0
  9 10  1  0
 10 11  1  0
 11 12  1  0
 12 13  1  0
 13 14  1  0
  8 15  2  0
 15 16  1  0
 16 17  1  0
 17 18  2  0
 17 19  1  0
 19 20  1  0
 20 21  1  0
 20 22  1  0
 22 23  2  0
 23 24  1  0
 24 25  2  0
 25 26  1  0
 26 27  1  0
 26 28  1  0
 26 29  1  0
 25 30  1  0
 30 31  2  0
 16 32  2  0
  5 33  1  0
 33  2  1  0
 32  6  1  0
 14 10  1  0
 31 22  1  0
  1 34  1  0
  1 35  1  0
  1 36  1  0
  3 37  1  0
  7 38  1  0
 10 39  1  6
 11 40  1  0
 11 41  1  0
 12 42  1  0
 12 43  1  0
 14 44  1  0
 14 45  1  0
 15 46  1  0
 19 47  1  0
 20 48  1  1
 21 49  1  0
 21 50  1  0
 21 51  1  0
 23 52  1  0
 31 53  1  0
 32 54  1  0
M  END
$$$$
