
     RDKit          3D

 69 72  0  0  0  0  0  0  0  0999 V2000
    6.6835    1.4127    2.3024 C   0  0  0  0  0  0  0  0  0  0  0  0
    5.3676    1.3929    1.6016 C   0  0  0  0  0  0  0  0  0  0  0  0
    4.1873    1.2959    2.3042 C   0  0  0  0  0  0  0  0  0  0  0  0
    2.9866    1.2755    1.6116 C   0  0  0  0  0  0  0  0  0  0  0  0
    2.9204    1.3478    0.2516 C   0  0  0  0  0  0  0  0  0  0  0  0
    1.6204    1.3128   -0.4608 C   0  0  0  0  0  0  0  0  0  0  0  0
    1.2333    2.4018   -0.9095 O   0  0  0  0  0  0  0  0  0  0  0  0
    0.8953    0.1414   -0.6123 N   0  0  0  0  0  0  0  0  0  0  0  0
    1.4940   -1.0595   -0.0025 C   0  0  0  0  0  0  0  0  0  0  0  0
    2.4223   -1.7965   -0.9012 C   0  0  0  0  0  0  0  0  0  0  0  0
    2.9718   -2.9735   -0.0886 C   0  0  0  0  0  0  0  0  0  0  0  0
    1.9246   -3.8473    0.3519 N   0  0  0  0  0  0  0  0  0  0  0  0
   -0.3480    0.0207   -1.2943 C   0  0  0  0  0  0  0  0  0  0  0  0
   -1.4926    0.7687   -0.7116 C   0  0  0  0  0  0  0  0  0  0  0  0
   -1.2511    2.0503   -0.3586 N   0  0  0  0  0  0  0  0  0  0  0  0
   -2.2399    2.8485    0.1320 C   0  0  0  0  0  0  0  0  0  0  0  0
   -2.2370    4.4669    0.6492 S   0  0  0  0  0  0  0  0  0  0  0  0
   -3.9996    4.5597    1.0977 N   0  0  0  0  0  0  0  0  0  0  0  0
   -4.4224    3.2832    0.7894 C   0  0  0  0  0  0  0  0  0  0  0  0
   -5.9027    3.0055    1.0511 C   0  0  0  0  0  0  0  0  0  0  0  0
   -3.5137    2.4298    0.3006 C   0  0  0  0  0  0  0  0  0  0  0  0
   -3.7546    1.0954   -0.0677 C   0  0  0  0  0  0  0  0  0  0  0  0
   -4.8878    0.5525    0.0282 O   0  0  0  0  0  0  0  0  0  0  0  0
   -2.7468    0.3278   -0.5514 N   0  0  0  0  0  0  0  0  0  0  0  0
   -3.0637   -1.0448   -0.9315 C   0  0  0  0  0  0  0  0  0  0  0  0
   -3.0498   -1.8205    0.3607 C   0  0  0  0  0  0  0  0  0  0  0  0
   -4.0749   -2.7339    0.5858 C   0  0  0  0  0  0  0  0  0  0  0  0
   -4.1103   -3.4104    1.7816 C   0  0  0  0  0  0  0  0  0  0  0  0
   -3.1642   -3.2038    2.7484 C   0  0  0  0  0  0  0  0  0  0  0  0
   -2.1680   -2.3002    2.5020 C   0  0  0  0  0  0  0  0  0  0  0  0
   -2.0951   -1.5915    1.2993 C   0  0  0  0  0  0  0  0  0  0  0  0
   -0.3448    0.3173   -2.7564 C   0  0  0  0  0  0  0  0  0  0  0  0
    0.5907   -0.5585   -3.5687 C   0  0  0  0  0  0  0  0  0  0  0  0
   -0.2319    1.7167   -3.2119 C   0  0  0  0  0  0  0  0  0  0  0  0
    4.1261    1.4454   -0.4410 C   0  0  0  0  0  0  0  0  0  0  0  0
    5.3383    1.4684    0.2247 C   0  0  0  0  0  0  0  0  0  0  0  0
    6.6292    2.1415    3.1364 H   0  0  0  0  0  0  0  0  0  0  0  0
    7.4887    1.7539    1.6397 H   0  0  0  0  0  0  0  0  0  0  0  0
    6.9124    0.4227    2.7592 H   0  0  0  0  0  0  0  0  0  0  0  0
    4.2065    1.2366    3.3705 H   0  0  0  0  0  0  0  0  0  0  0  0
    2.0702    1.2004    2.1756 H   0  0  0  0  0  0  0  0  0  0  0  0
    0.6461   -1.7400    0.2435 H   0  0  0  0  0  0  0  0  0  0  0  0
    2.0313   -0.8310    0.9294 H   0  0  0  0  0  0  0  0  0  0  0  0
    3.2973   -1.2317   -1.2320 H   0  0  0  0  0  0  0  0  0  0  0  0
    1.8726   -2.2922   -1.7432 H   0  0  0  0  0  0  0  0  0  0  0  0
    3.6069   -2.5930    0.7526 H   0  0  0  0  0  0  0  0  0  0  0  0
    3.6632   -3.6092   -0.7092 H   0  0  0  0  0  0  0  0  0  0  0  0
    1.0693   -3.6635   -0.1848 H   0  0  0  0  0  0  0  0  0  0  0  0
    1.8477   -3.9131    1.3709 H   0  0  0  0  0  0  0  0  0  0  0  0
   -0.6876   -1.0814   -1.2415 H   0  0  0  0  0  0  0  0  0  0  0  0
   -6.2906    2.3521    0.2568 H   0  0  0  0  0  0  0  0  0  0  0  0
   -6.4783    3.9342    1.0293 H   0  0  0  0  0  0  0  0  0  0  0  0
   -6.0179    2.4586    2.0106 H   0  0  0  0  0  0  0  0  0  0  0  0
   -2.4210   -1.5139   -1.6296 H   0  0  0  0  0  0  0  0  0  0  0  0
   -4.1541   -1.0455   -1.2955 H   0  0  0  0  0  0  0  0  0  0  0  0
   -4.8405   -2.9131   -0.1697 H   0  0  0  0  0  0  0  0  0  0  0  0
   -4.8885   -4.1344    2.0128 H   0  0  0  0  0  0  0  0  0  0  0  0
   -3.1444   -3.7076    3.7142 H   0  0  0  0  0  0  0  0  0  0  0  0
   -1.4054   -2.1226    3.2686 H   0  0  0  0  0  0  0  0  0  0  0  0
   -1.2838   -0.8656    1.1755 H   0  0  0  0  0  0  0  0  0  0  0  0
   -1.3821   -0.0316   -3.1115 H   0  0  0  0  0  0  0  0  0  0  0  0
    1.6206   -0.2940   -3.2979 H   0  0  0  0  0  0  0  0  0  0  0  0
    0.4625   -0.2214   -4.6353 H   0  0  0  0  0  0  0  0  0  0  0  0
    0.3269   -1.6126   -3.5056 H   0  0  0  0  0  0  0  0  0  0  0  0
    0.8001    2.0301   -3.5119 H   0  0  0  0  0  0  0  0  0  0  0  0
   -0.7769    1.7686   -4.2277 H   0  0  0  0  0  0  0  0  0  0  0  0
   -0.7804    2.4711   -2.6234 H   0  0  0  0  0  0  0  0  0  0  0  0
    4.0652    1.5024   -1.5240 H   0  0  0  0  0  0  0  0  0  0  0  0
    6.2713    1.5483   -0.3094 H   0  0  0  0  0  0  0  0  0  0  0  0
  1  2  1  0
  2  3  2  0
  3  4  1  0
  4  5  2  0
  5  6  1  0
  6  7  2  0
  6  8  1  0
  8  9  1  0
  9 10  1  0
 10 11  1  0
 11 12  1  0
  8 13  1  0
 13 14  1  0
 14 15  2  0
 15 16  1  0
 16 17  1  0
 17 18  1  0
 18 19  2  0
 19 20  1  0
 19 21  1  0
 21 22  1  0
 22 23  2  0
 22 24  1  0
 24 25  1  0
 25 26  1  0
 26 27  2  0
 27 28  1  0
 28 29  2  0
 29 30  1  0
 30 31  2  0
 13 32  1  0
 32 33  1  0
 32 34  1  0
  5 35  1  0
 35 36  2  0
 36  2  1  0
 24 14  1  0
 31 26  1  0
 21 16  2  0
  1 37  1  0
  1 38  1  0
  1 39  1  0
  3 40  1  0
  4 41  1  0
  9 42  1  0
  9 43  1  0
 10 44  1  0
 10 45  1  0
 11 46  1  0
 11 47  1  0
 12 48  1  0
 12 49  1  0
 13 50  1  0
 20 51  1  0
 20 52  1  0
 20 53  1  0
 25 54  1  0
 25 55  1  0
 27 56  1  0
 28 57  1  0
 29 58  1  0
 30 59  1  0
 31 60  1  0
 32 61  1  0
 33 62  1  0
 33 63  1  0
 33 64  1  0
 34 65  1  0
 34 66  1  0
 34 67  1  0
 35 68  1  0
 36 69  1  0
M  END
$$$$
