
     RDKit          3D

 47 50  0  0  0  0  0  0  0  0999 V2000
    5.3959   -1.6439    1.5105 N   0  0  0  0  0  0  0  0  0  0  0  0
    4.0543   -1.2950    1.2339 C   0  0  0  0  0  0  0  0  0  0  0  0
    3.1721   -1.4617    2.0990 O   0  0  0  0  0  0  0  0  0  0  0  0
    3.7289   -0.7435   -0.0682 C   0  0  0  0  0  0  0  0  0  0  0  0
    4.6160   -0.5077   -1.1241 C   0  0  0  0  0  0  0  0  0  0  0  0
    3.9039    0.0067   -2.1359 N   0  0  0  0  0  0  0  0  0  0  0  0
    2.6050    0.0978   -1.7429 C   0  0  0  0  0  0  0  0  0  0  0  0
    1.4805    0.5599   -2.4132 C   0  0  0  0  0  0  0  0  0  0  0  0
    0.2755    0.5414   -1.7752 C   0  0  0  0  0  0  0  0  0  0  0  0
    0.1273    0.0766   -0.4750 C   0  0  0  0  0  0  0  0  0  0  0  0
   -1.1533    0.0678    0.1805 C   0  0  0  0  0  0  0  0  0  0  0  0
   -1.8875    1.2028    0.4527 C   0  0  0  0  0  0  0  0  0  0  0  0
   -1.5519    2.5869    0.1586 C   0  0  0  0  0  0  0  0  0  0  0  0
   -0.4374    3.1642    0.7300 C   0  0  0  0  0  0  0  0  0  0  0  0
   -0.0855    4.4853    0.4713 C   0  0  0  0  0  0  0  0  0  0  0  0
   -0.8478    5.2744   -0.3754 C   0  0  0  0  0  0  0  0  0  0  0  0
   -0.4915    6.5714   -0.6215 F   0  0  0  0  0  0  0  0  0  0  0  0
   -1.9566    4.6983   -0.9431 C   0  0  0  0  0  0  0  0  0  0  0  0
   -2.2978    3.3910   -0.6825 C   0  0  0  0  0  0  0  0  0  0  0  0
   -3.0336    0.8108    1.0735 N   0  0  0  0  0  0  0  0  0  0  0  0
   -3.0279   -0.5106    1.1900 C   0  0  0  0  0  0  0  0  0  0  0  0
   -1.8746   -0.9651    0.6422 N   0  0  0  0  0  0  0  0  0  0  0  0
   -1.4674   -2.3378    0.5606 C   0  0  0  0  0  0  0  0  0  0  0  0
   -1.2843   -2.7872   -0.8872 C   0  0  0  0  0  0  0  0  0  0  0  0
   -2.4827   -2.6509   -1.5887 O   0  0  0  0  0  0  0  0  0  0  0  0
   -2.5150   -3.2584    1.1602 C   0  0  0  0  0  0  0  0  0  0  0  0
   -3.6973   -3.0982    0.4639 O   0  0  0  0  0  0  0  0  0  0  0  0
    1.2935   -0.3712    0.1387 C   0  0  0  0  0  0  0  0  0  0  0  0
    2.4928   -0.3614   -0.4743 N   0  0  0  0  0  0  0  0  0  0  0  0
    5.6050   -2.6155    1.8106 H   0  0  0  0  0  0  0  0  0  0  0  0
    6.1940   -0.9841    1.4322 H   0  0  0  0  0  0  0  0  0  0  0  0
    5.6735   -0.7319   -1.0479 H   0  0  0  0  0  0  0  0  0  0  0  0
    1.6248    0.9167   -3.4247 H   0  0  0  0  0  0  0  0  0  0  0  0
   -0.6214    0.9020   -2.2879 H   0  0  0  0  0  0  0  0  0  0  0  0
    0.1662    2.5562    1.3940 H   0  0  0  0  0  0  0  0  0  0  0  0
    0.7899    4.9346    0.9213 H   0  0  0  0  0  0  0  0  0  0  0  0
   -2.5628    5.2827   -1.6017 H   0  0  0  0  0  0  0  0  0  0  0  0
   -3.1827    2.9180   -1.1289 H   0  0  0  0  0  0  0  0  0  0  0  0
   -3.8187   -1.0859    1.6471 H   0  0  0  0  0  0  0  0  0  0  0  0
   -0.5031   -2.5283    1.0882 H   0  0  0  0  0  0  0  0  0  0  0  0
   -0.9905   -3.8704   -0.8142 H   0  0  0  0  0  0  0  0  0  0  0  0
   -0.4862   -2.2219   -1.3688 H   0  0  0  0  0  0  0  0  0  0  0  0
   -2.8362   -3.5536   -1.8134 H   0  0  0  0  0  0  0  0  0  0  0  0
   -2.6828   -3.0235    2.2454 H   0  0  0  0  0  0  0  0  0  0  0  0
   -2.1586   -4.3039    1.0715 H   0  0  0  0  0  0  0  0  0  0  0  0
   -4.4872   -3.3961    1.0086 H   0  0  0  0  0  0  0  0  0  0  0  0
    1.2229   -0.7376    1.1402 H   0  0  0  0  0  0  0  0  0  0  0  0
  1  2  1  0
  2  3  2  0
  2  4  1  0
  4  5  2  0
  5  6  1  0
  6  7  2  0
  7  8  1  0
  8  9  2  0
  9 10  1  0
 10 11  1  0
 11 12  2  0
 12 13  1  0
 13 14  2  0
 14 15  1  0
 15 16  2  0
 16 17  1  0
 16 18  1  0
 18 19  2  0
 12 20  1  0
 20 21  2  0
 21 22  1  0
 22 23  1  0
 23 24  1  0
 24 25  1  0
 23 26  1  0
 26 27  1  0
 10 28  2  0
 28 29  1  0
 29  4  1  0
 29  7  1  0
 22 11  1  0
 19 13  1  0
  1 30  1  0
  1 31  1  0
  5 32  1  0
  8 33  1  0
  9 34  1  0
 14 35  1  0
 15 36  1  0
 18 37  1  0
 19 38  1  0
 21 39  1  0
 23 40  1  0
 24 41  1  0
 24 42  1  0
 25 43  1  0
 26 44  1  0
 26 45  1  0
 27 46  1  0
 28 47  1  0
M  END
$$$$
