
     RDKit          3D

 56 60  0  0  0  0  0  0  0  0999 V2000
    2.1539    3.7914   -0.4386 C   0  0  0  0  0  0  0  0  0  0  0  0
    1.0295    3.0936    0.0361 O   0  0  0  0  0  0  0  0  0  0  0  0
    1.1150    1.7457    0.3223 C   0  0  0  0  0  0  0  0  0  0  0  0
    2.3094    1.0884    0.1397 C   0  0  0  0  0  0  0  0  0  0  0  0
    2.4364   -0.2518    0.4125 C   0  0  0  0  0  0  0  0  0  0  0  0
    3.6111   -0.9829    0.2521 C   0  0  0  0  0  0  0  0  0  0  0  0
    4.7699   -0.3344   -0.2225 N   0  0  0  0  0  0  0  0  0  0  0  0
    6.0211   -0.9688   -0.4211 C   0  0  0  0  0  0  0  0  0  0  0  0
    6.2851   -2.2972   -0.1809 C   0  0  0  0  0  0  0  0  0  0  0  0
    7.5792   -2.7721   -0.4294 C   0  0  0  0  0  0  0  0  0  0  0  0
    7.8969   -4.4630   -0.1185 Cl  0  0  0  0  0  0  0  0  0  0  0  0
    8.5852   -1.9594   -0.9017 C   0  0  0  0  0  0  0  0  0  0  0  0
   10.3415   -2.6482   -1.2285 Br  0  0  0  0  0  0  0  0  0  0  0  0
    8.3272   -0.6316   -1.1434 C   0  0  0  0  0  0  0  0  0  0  0  0
    7.0681   -0.1649   -0.9028 C   0  0  0  0  0  0  0  0  0  0  0  0
    6.8268    1.1523   -1.1467 F   0  0  0  0  0  0  0  0  0  0  0  0
    3.5527   -2.2659    0.5637 N   0  0  0  0  0  0  0  0  0  0  0  0
    2.5070   -2.9484    1.0133 C   0  0  0  0  0  0  0  0  0  0  0  0
    1.3658   -2.2536    1.1727 N   0  0  0  0  0  0  0  0  0  0  0  0
    1.3191   -0.9343    0.8822 C   0  0  0  0  0  0  0  0  0  0  0  0
    0.0981   -0.3016    1.0783 C   0  0  0  0  0  0  0  0  0  0  0  0
   -0.0043    1.0354    0.7985 C   0  0  0  0  0  0  0  0  0  0  0  0
   -1.1608    1.7092    0.9636 O   0  0  0  0  0  0  0  0  0  0  0  0
   -2.4076    1.3495    1.3638 C   0  0  0  0  0  0  0  0  0  0  0  0
   -3.0746    0.3798    0.4637 C   0  0  0  0  0  0  0  0  0  0  0  0
   -3.2334    0.9306   -0.9618 C   0  0  0  0  0  0  0  0  0  0  0  0
   -4.2448    0.1999   -1.5336 O   0  0  0  0  0  0  0  0  0  0  0  0
   -5.0112   -0.3645   -0.5476 C   0  0  2  0  0  0  0  0  0  0  0  0
   -6.4613    0.0643   -0.6082 C   0  0  1  0  0  0  0  0  0  0  0  0
   -7.1922   -0.7942    0.1777 O   0  0  0  0  0  0  0  0  0  0  0  0
   -8.2474   -1.3925   -0.4711 C   0  0  0  0  0  0  0  0  0  0  0  0
   -6.4021    1.4049    0.0926 C   0  0  0  0  0  0  0  0  0  0  0  0
   -5.1943    1.4950    0.7338 O   0  0  0  0  0  0  0  0  0  0  0  0
   -4.5871    0.2737    0.7740 C   0  0  2  0  0  0  0  0  0  0  0  0
    2.5267    3.4153   -1.4151 H   0  0  0  0  0  0  0  0  0  0  0  0
    2.9547    3.6819    0.3320 H   0  0  0  0  0  0  0  0  0  0  0  0
    1.9005    4.8636   -0.5019 H   0  0  0  0  0  0  0  0  0  0  0  0
    3.1873    1.6191   -0.2276 H   0  0  0  0  0  0  0  0  0  0  0  0
    4.7412    0.6930   -0.4564 H   0  0  0  0  0  0  0  0  0  0  0  0
    5.5338   -2.9528    0.1836 H   0  0  0  0  0  0  0  0  0  0  0  0
    9.1176    0.0249   -1.5188 H   0  0  0  0  0  0  0  0  0  0  0  0
    2.5040   -4.0009    1.2563 H   0  0  0  0  0  0  0  0  0  0  0  0
   -0.7037   -0.9046    1.4575 H   0  0  0  0  0  0  0  0  0  0  0  0
   -2.2951    0.8027    2.3563 H   0  0  0  0  0  0  0  0  0  0  0  0
   -3.0967    2.2152    1.5178 H   0  0  0  0  0  0  0  0  0  0  0  0
   -2.7276   -0.6430    0.4523 H   0  0  0  0  0  0  0  0  0  0  0  0
   -3.5369    1.9907   -0.8394 H   0  0  0  0  0  0  0  0  0  0  0  0
   -2.2759    0.8741   -1.5143 H   0  0  0  0  0  0  0  0  0  0  0  0
   -4.8923   -1.4475   -0.4223 H   0  0  0  0  0  0  0  0  0  0  0  0
   -6.8267    0.1515   -1.6519 H   0  0  0  0  0  0  0  0  0  0  0  0
   -8.9953   -0.6769   -0.8703 H   0  0  0  0  0  0  0  0  0  0  0  0
   -8.7056   -2.1172    0.2552 H   0  0  0  0  0  0  0  0  0  0  0  0
   -7.9337   -2.0192   -1.3365 H   0  0  0  0  0  0  0  0  0  0  0  0
   -6.3916    2.1762   -0.7312 H   0  0  0  0  0  0  0  0  0  0  0  0
   -7.2790    1.6167    0.7106 H   0  0  0  0  0  0  0  0  0  0  0  0
   -4.7837   -0.3471    1.6351 H   0  0  0  0  0  0  0  0  0  0  0  0
  1  2  1  0
  2  3  1  0
  3  4  2  0
  4  5  1  0
  5  6  2  0
  6  7  1  0
  7  8  1  0
  8  9  2  0
  9 10  1  0
 10 11  1  0
 10 12  2  0
 12 13  1  0
 12 14  1  0
 14 15  2  0
 15 16  1  0
  6 17  1  0
 17 18  2  0
 18 19  1  0
 19 20  2  0
 20 21  1  0
 21 22  2  0
 22 23  1  0
 23 24  1  0
 24 25  1  0
 25 26  1  0
 26 27  1  0
 27 28  1  0
 28 29  1  0
 29 30  1  0
 30 31  1  0
 29 32  1  0
 32 33  1  0
 33 34  1  0
 22  3  1  0
 34 25  1  0
 20  5  1  0
 34 28  1  0
 15  8  1  0
  1 35  1  0
  1 36  1  0
  1 37  1  0
  4 38  1  0
  7 39  1  0
  9 40  1  0
 14 41  1  0
 18 42  1  0
 21 43  1  0
 24 44  1  0
 24 45  1  0
 25 46  1  0
 26 47  1  0
 26 48  1  0
 28 49  1  1
 29 50  1  6
 31 51  1  0
 31 52  1  0
 31 53  1  0
 32 54  1  0
 32 55  1  0
 34 56  1  1
M  END
$$$$
