
     RDKit          3D

 55 58  0  0  0  0  0  0  0  0999 V2000
   -2.8845   -0.5188    0.5451 N   0  0  0  0  0  0  0  0  0  0  0  0
   -2.8044    0.5735   -0.4253 C   0  0  1  0  0  0  0  0  0  0  0  0
   -2.0373   -0.0454   -1.6107 C   0  0  0  0  0  0  0  0  0  0  0  0
   -0.7186   -0.4470   -1.0462 C   0  0  0  0  0  0  0  0  0  0  0  0
   -0.0501    0.4821   -0.4967 O   0  0  0  0  0  0  0  0  0  0  0  0
   -0.2304   -1.7790   -1.1109 N   0  0  0  0  0  0  0  0  0  0  0  0
   -0.8874   -2.9253   -1.6829 C   0  0  0  0  0  0  0  0  0  0  0  0
    0.2377   -3.6313   -2.4033 C   0  0  0  0  0  0  0  0  0  0  0  0
    1.3822   -3.4533   -1.4197 C   0  0  0  0  0  0  0  0  0  0  0  0
    1.0304   -2.2290   -0.6022 C   0  0  1  0  0  0  0  0  0  0  0  0
    2.0954   -1.2190   -0.7081 C   0  0  0  0  0  0  0  0  0  0  0  0
    2.9533   -0.9078    0.2699 N   0  0  0  0  0  0  0  0  0  0  0  0
    3.7993    0.0511   -0.1452 C   0  0  0  0  0  0  0  0  0  0  0  0
    4.8698    0.7067    0.5167 N   0  0  0  0  0  0  0  0  0  0  0  0
    5.6863    1.7141   -0.1326 C   0  0  0  0  0  0  0  0  0  0  0  0
    7.0642    1.6144    0.5289 C   0  0  0  0  0  0  0  0  0  0  0  0
    7.0222    1.9596    1.8647 O   0  0  0  0  0  0  0  0  0  0  0  0
    5.8397    1.6349    2.4897 C   0  0  0  0  0  0  0  0  0  0  0  0
    5.2023    0.3952    1.8978 C   0  0  0  0  0  0  0  0  0  0  0  0
    3.4177    0.3030   -1.4079 N   0  0  0  0  0  0  0  0  0  0  0  0
    2.4092   -0.4598   -1.7179 O   0  0  0  0  0  0  0  0  0  0  0  0
   -4.2015    0.8976   -0.9476 C   0  0  0  0  0  0  0  0  0  0  0  0
   -5.1004    1.2944    0.1554 C   0  0  0  0  0  0  0  0  0  0  0  0
   -6.0597    0.3808    0.6034 C   0  0  0  0  0  0  0  0  0  0  0  0
   -6.8957    0.7399    1.6348 C   0  0  0  0  0  0  0  0  0  0  0  0
   -7.8114   -0.1538    2.0528 F   0  0  0  0  0  0  0  0  0  0  0  0
   -6.7692    1.9878    2.2013 C   0  0  0  0  0  0  0  0  0  0  0  0
   -7.6143    2.2919    3.2154 F   0  0  0  0  0  0  0  0  0  0  0  0
   -5.8135    2.9053    1.7584 C   0  0  0  0  0  0  0  0  0  0  0  0
   -4.9756    2.5394    0.7209 C   0  0  0  0  0  0  0  0  0  0  0  0
   -4.0340    3.4115    0.2687 F   0  0  0  0  0  0  0  0  0  0  0  0
   -3.8118   -0.9669    0.4874 H   0  0  0  0  0  0  0  0  0  0  0  0
   -2.6168   -0.1770    1.4868 H   0  0  0  0  0  0  0  0  0  0  0  0
   -2.2827    1.4476   -0.0514 H   0  0  0  0  0  0  0  0  0  0  0  0
   -2.6363   -0.8788   -1.9701 H   0  0  0  0  0  0  0  0  0  0  0  0
   -1.9363    0.7437   -2.3898 H   0  0  0  0  0  0  0  0  0  0  0  0
   -1.2222   -3.6020   -0.8560 H   0  0  0  0  0  0  0  0  0  0  0  0
   -1.7308   -2.6639   -2.3521 H   0  0  0  0  0  0  0  0  0  0  0  0
    0.5184   -3.0993   -3.3335 H   0  0  0  0  0  0  0  0  0  0  0  0
    0.0263   -4.7065   -2.5802 H   0  0  0  0  0  0  0  0  0  0  0  0
    1.4682   -4.3289   -0.7369 H   0  0  0  0  0  0  0  0  0  0  0  0
    2.3512   -3.3100   -1.9424 H   0  0  0  0  0  0  0  0  0  0  0  0
    0.8500   -2.5309    0.4712 H   0  0  0  0  0  0  0  0  0  0  0  0
    5.3139    2.7493    0.0953 H   0  0  0  0  0  0  0  0  0  0  0  0
    5.7990    1.5639   -1.2063 H   0  0  0  0  0  0  0  0  0  0  0  0
    7.4476    0.5605    0.4308 H   0  0  0  0  0  0  0  0  0  0  0  0
    7.7646    2.3210    0.0204 H   0  0  0  0  0  0  0  0  0  0  0  0
    5.9680    1.4568    3.5874 H   0  0  0  0  0  0  0  0  0  0  0  0
    5.1191    2.4848    2.3920 H   0  0  0  0  0  0  0  0  0  0  0  0
    4.2537    0.1978    2.4360 H   0  0  0  0  0  0  0  0  0  0  0  0
    5.8564   -0.4743    1.9499 H   0  0  0  0  0  0  0  0  0  0  0  0
   -4.6119    0.0528   -1.5247 H   0  0  0  0  0  0  0  0  0  0  0  0
   -4.1384    1.7683   -1.6358 H   0  0  0  0  0  0  0  0  0  0  0  0
   -6.1507   -0.5922    0.1515 H   0  0  0  0  0  0  0  0  0  0  0  0
   -5.7202    3.8699    2.2041 H   0  0  0  0  0  0  0  0  0  0  0  0
  1  2  1  0
  2  3  1  0
  3  4  1  0
  4  5  2  0
  4  6  1  0
  6  7  1  0
  7  8  1  0
  8  9  1  0
  9 10  1  0
 10 11  1  0
 11 12  2  0
 12 13  1  0
 13 14  1  0
 14 15  1  0
 15 16  1  0
 16 17  1  0
 17 18  1  0
 18 19  1  0
 13 20  2  0
 20 21  1  0
  2 22  1  0
 22 23  1  0
 23 24  2  0
 24 25  1  0
 25 26  1  0
 25 27  2  0
 27 28  1  0
 27 29  1  0
 29 30  2  0
 30 31  1  0
 10  6  1  0
 21 11  1  0
 30 23  1  0
 19 14  1  0
  1 32  1  0
  1 33  1  0
  2 34  1  1
  3 35  1  0
  3 36  1  0
  7 37  1  0
  7 38  1  0
  8 39  1  0
  8 40  1  0
  9 41  1  0
  9 42  1  0
 10 43  1  1
 15 44  1  0
 15 45  1  0
 16 46  1  0
 16 47  1  0
 18 48  1  0
 18 49  1  0
 19 50  1  0
 19 51  1  0
 22 52  1  0
 22 53  1  0
 24 54  1  0
 29 55  1  0
M  END
$$$$
