
     RDKit          3D

 39 42  0  0  0  0  0  0  0  0999 V2000
    4.7150    0.7626    2.8092 N   0  0  0  0  0  0  0  0  0  0  0  0
    3.7755    0.0211    2.8824 C   0  0  0  0  0  0  0  0  0  0  0  0
    2.6487   -0.8407    2.9793 C   0  0  0  0  0  0  0  0  0  0  0  0
    2.4288   -1.9031    3.8250 C   0  0  0  0  0  0  0  0  0  0  0  0
    1.2163   -2.4034    3.5370 N   0  0  0  0  0  0  0  0  0  0  0  0
    0.7001   -1.6678    2.5364 C   0  0  0  0  0  0  0  0  0  0  0  0
   -0.5187   -1.7236    1.8481 C   0  0  0  0  0  0  0  0  0  0  0  0
   -0.7844   -0.8151    0.8613 C   0  0  0  0  0  0  0  0  0  0  0  0
    0.0938    0.1856    0.4813 C   0  0  0  0  0  0  0  0  0  0  0  0
   -0.2484    1.1384   -0.5669 C   0  0  0  0  0  0  0  0  0  0  0  0
   -0.5934    0.7145   -1.8379 C   0  0  0  0  0  0  0  0  0  0  0  0
   -0.7095   -0.6537   -2.3603 C   0  0  0  0  0  0  0  0  0  0  0  0
    0.3076   -1.5625   -2.3919 C   0  0  0  0  0  0  0  0  0  0  0  0
    0.1312   -2.8516   -2.9052 C   0  0  0  0  0  0  0  0  0  0  0  0
   -1.1036   -3.1895   -3.3830 C   0  0  0  0  0  0  0  0  0  0  0  0
   -1.3592   -4.4376   -3.9067 F   0  0  0  0  0  0  0  0  0  0  0  0
   -2.1819   -2.3097   -3.3789 C   0  0  0  0  0  0  0  0  0  0  0  0
   -3.3984   -2.6741   -3.8635 F   0  0  0  0  0  0  0  0  0  0  0  0
   -1.9217   -1.0639   -2.8573 C   0  0  0  0  0  0  0  0  0  0  0  0
   -0.8477    1.8369   -2.5690 N   0  0  0  0  0  0  0  0  0  0  0  0
   -0.6614    2.8975   -1.7606 C   0  0  0  0  0  0  0  0  0  0  0  0
   -0.2904    2.4831   -0.5198 N   0  0  0  0  0  0  0  0  0  0  0  0
    0.0054    3.2914    0.6160 C   0  0  0  0  0  0  0  0  0  0  0  0
   -1.2756    3.4838    1.4168 C   0  0  0  0  0  0  0  0  0  0  0  0
   -1.0327    4.2737    2.5287 F   0  0  0  0  0  0  0  0  0  0  0  0
   -1.7702    2.2602    1.8988 F   0  0  0  0  0  0  0  0  0  0  0  0
    1.2840    0.2047    1.1822 C   0  0  0  0  0  0  0  0  0  0  0  0
    1.5569   -0.6883    2.1616 N   0  0  0  0  0  0  0  0  0  0  0  0
    3.1487   -2.2366    4.5815 H   0  0  0  0  0  0  0  0  0  0  0  0
   -1.2052   -2.5123    2.1442 H   0  0  0  0  0  0  0  0  0  0  0  0
   -1.7448   -0.9018    0.3597 H   0  0  0  0  0  0  0  0  0  0  0  0
    1.2737   -1.2821   -2.0135 H   0  0  0  0  0  0  0  0  0  0  0  0
    0.9589   -3.5585   -2.9222 H   0  0  0  0  0  0  0  0  0  0  0  0
   -2.7419   -0.3573   -2.8420 H   0  0  0  0  0  0  0  0  0  0  0  0
   -0.7760    3.9496   -2.0068 H   0  0  0  0  0  0  0  0  0  0  0  0
    0.2623    4.3611    0.3226 H   0  0  0  0  0  0  0  0  0  0  0  0
    0.7382    2.8970    1.3245 H   0  0  0  0  0  0  0  0  0  0  0  0
   -2.0940    3.9290    0.8551 H   0  0  0  0  0  0  0  0  0  0  0  0
    2.0141    0.9428    0.9338 H   0  0  0  0  0  0  0  0  0  0  0  0
  1  2  3  0
  2  3  1  0
  3  4  2  0
  4  5  1  0
  5  6  2  0
  6  7  1  0
  7  8  2  0
  8  9  1  0
  9 10  1  0
 10 11  2  0
 11 12  1  0
 12 13  2  0
 13 14  1  0
 14 15  2  0
 15 16  1  0
 15 17  1  0
 17 18  1  0
 17 19  2  0
 11 20  1  0
 20 21  2  0
 21 22  1  0
 22 23  1  0
 23 24  1  0
 24 25  1  0
 24 26  1  0
  9 27  2  0
 27 28  1  0
 28  3  1  0
 28  6  1  0
 22 10  1  0
 19 12  1  0
  4 29  1  0
  7 30  1  0
  8 31  1  0
 13 32  1  0
 14 33  1  0
 19 34  1  0
 21 35  1  0
 23 36  1  0
 23 37  1  0
 24 38  1  0
 27 39  1  0
M  END
$$$$
