
     RDKit          3D

 50 52  0  0  0  0  0  0  0  0999 V2000
    8.6857   -0.3219    0.6147 O   0  0  0  0  0  0  0  0  0  0  0  0
    8.1546    0.2948   -0.3190 C   0  0  0  0  0  0  0  0  0  0  0  0
    6.7140    0.2705   -0.4721 C   0  0  0  0  0  0  0  0  0  0  0  0
    5.9936   -0.4162    0.3969 C   0  0  0  0  0  0  0  0  0  0  0  0
    4.5434   -0.4463    0.2506 C   0  0  0  0  0  0  0  0  0  0  0  0
    3.7441   -1.1466    1.1283 C   0  0  0  0  0  0  0  0  0  0  0  0
    2.3791   -1.1519    0.9583 C   0  0  0  0  0  0  0  0  0  0  0  0
    1.7739   -0.4695   -0.0769 C   0  0  0  0  0  0  0  0  0  0  0  0
    0.3522   -0.4769   -0.2514 N   0  0  0  0  0  0  0  0  0  0  0  0
   -0.4637    0.4860    0.3492 C   0  0  0  0  0  0  0  0  0  0  0  0
    0.1437    1.3647    1.0546 O   0  0  0  0  0  0  0  0  0  0  0  0
   -1.9301    0.5974    0.2577 C   0  0  0  0  0  0  0  0  0  0  0  0
   -2.2707    0.9426   -1.1550 C   0  0  0  0  0  0  0  0  0  0  0  0
   -3.7455    1.0798   -1.3068 C   0  0  0  0  0  0  0  0  0  0  0  0
   -4.5699    0.0615   -1.7185 C   0  0  0  0  0  0  0  0  0  0  0  0
   -5.9241    0.2903   -1.8126 C   0  0  0  0  0  0  0  0  0  0  0  0
   -6.4847    1.5191   -1.5048 C   0  0  0  0  0  0  0  0  0  0  0  0
   -5.6586    2.5431   -1.0917 C   0  0  0  0  0  0  0  0  0  0  0  0
   -4.3131    2.2980   -1.0034 C   0  0  0  0  0  0  0  0  0  0  0  0
   -2.6723   -0.5298    0.8365 C   0  0  0  0  0  0  0  0  0  0  0  0
   -2.7279   -1.7970    0.3031 C   0  0  0  0  0  0  0  0  0  0  0  0
   -3.4380   -2.8333    0.9027 C   0  0  0  0  0  0  0  0  0  0  0  0
   -4.1237   -2.6162    2.0767 C   0  0  0  0  0  0  0  0  0  0  0  0
   -4.0947   -1.3631    2.6437 C   0  0  0  0  0  0  0  0  0  0  0  0
   -3.3875   -0.3666    2.0296 C   0  0  0  0  0  0  0  0  0  0  0  0
    2.6069    0.2183   -0.9327 C   0  0  0  0  0  0  0  0  0  0  0  0
    3.9378    0.2167   -0.7574 N   0  0  0  0  0  0  0  0  0  0  0  0
    8.9652    1.0127   -1.2199 N   0  0  0  0  0  0  0  0  0  0  0  0
   10.3085    1.0829   -1.1437 O   0  0  0  0  0  0  0  0  0  0  0  0
    6.2735    0.8160   -1.2941 H   0  0  0  0  0  0  0  0  0  0  0  0
    6.4253   -0.9645    1.2217 H   0  0  0  0  0  0  0  0  0  0  0  0
    4.1778   -1.7044    1.9665 H   0  0  0  0  0  0  0  0  0  0  0  0
    1.7467   -1.6950    1.6374 H   0  0  0  0  0  0  0  0  0  0  0  0
   -0.0501   -1.2069   -0.8343 H   0  0  0  0  0  0  0  0  0  0  0  0
   -2.2235    1.5109    0.8637 H   0  0  0  0  0  0  0  0  0  0  0  0
   -1.8576    0.2263   -1.8941 H   0  0  0  0  0  0  0  0  0  0  0  0
   -1.8249    1.9226   -1.3861 H   0  0  0  0  0  0  0  0  0  0  0  0
   -4.1617   -0.8892   -1.9701 H   0  0  0  0  0  0  0  0  0  0  0  0
   -6.5959   -0.5116   -2.1392 H   0  0  0  0  0  0  0  0  0  0  0  0
   -7.5431    1.6894   -1.5810 H   0  0  0  0  0  0  0  0  0  0  0  0
   -6.0715    3.5204   -0.8430 H   0  0  0  0  0  0  0  0  0  0  0  0
   -3.6562    3.1000   -0.6786 H   0  0  0  0  0  0  0  0  0  0  0  0
   -2.2188   -2.0172   -0.6161 H   0  0  0  0  0  0  0  0  0  0  0  0
   -3.4708   -3.8279    0.4679 H   0  0  0  0  0  0  0  0  0  0  0  0
   -4.6888   -3.3844    2.5814 H   0  0  0  0  0  0  0  0  0  0  0  0
   -4.6321   -1.1604    3.5793 H   0  0  0  0  0  0  0  0  0  0  0  0
   -3.3715    0.6265    2.4905 H   0  0  0  0  0  0  0  0  0  0  0  0
    2.1716    0.7606   -1.7494 H   0  0  0  0  0  0  0  0  0  0  0  0
    8.5067    1.5246   -1.9972 H   0  0  0  0  0  0  0  0  0  0  0  0
   10.5667    1.3211   -0.2188 H   0  0  0  0  0  0  0  0  0  0  0  0
  1  2  2  0
  2  3  1  0
  3  4  2  0
  4  5  1  0
  5  6  2  0
  6  7  1  0
  7  8  2  0
  8  9  1  0
  9 10  1  0
 10 11  2  0
 10 12  1  0
 12 13  1  0
 13 14  1  0
 14 15  2  0
 15 16  1  0
 16 17  2  0
 17 18  1  0
 18 19  2  0
 12 20  1  0
 20 21  2  0
 21 22  1  0
 22 23  2  0
 23 24  1  0
 24 25  2  0
  8 26  1  0
 26 27  2  0
  2 28  1  0
 28 29  1  0
 27  5  1  0
 19 14  1  0
 25 20  1  0
  3 30  1  0
  4 31  1  0
  6 32  1  0
  7 33  1  0
  9 34  1  0
 12 35  1  0
 13 36  1  0
 13 37  1  0
 15 38  1  0
 16 39  1  0
 17 40  1  0
 18 41  1  0
 19 42  1  0
 21 43  1  0
 22 44  1  0
 23 45  1  0
 24 46  1  0
 25 47  1  0
 26 48  1  0
 28 49  1  0
 29 50  1  0
M  END
$$$$
