
     RDKit          3D

 58 61  0  0  0  0  0  0  0  0999 V2000
    0.6791    2.2794   -0.5235 O   0  0  0  0  0  0  0  0  0  0  0  0
    0.3946    1.0679   -0.4850 C   0  0  0  0  0  0  0  0  0  0  0  0
    1.3158    0.1533   -0.9081 O   0  0  0  0  0  0  0  0  0  0  0  0
    2.5970    0.4552   -1.3996 C   0  0  2  0  0  0  0  0  0  0  0  0
    2.6998   -0.1980   -2.7748 C   0  0  0  0  0  0  0  0  0  0  0  0
    3.0049   -1.6566   -2.4862 C   0  0  0  0  0  0  0  0  0  0  0  0
    3.1843   -1.7633   -0.9855 C   0  0  0  0  0  0  0  0  0  0  0  0
    3.6833   -0.3470   -0.6663 C   0  0  1  0  0  0  0  0  0  0  0  0
    4.8651   -0.1626   -1.3599 O   0  0  0  0  0  0  0  0  0  0  0  0
    6.0792    0.2454   -0.9083 C   0  0  0  0  0  0  0  0  0  0  0  0
    7.1279    0.3579   -1.7962 C   0  0  0  0  0  0  0  0  0  0  0  0
    8.3939    0.7756   -1.3669 C   0  0  0  0  0  0  0  0  0  0  0  0
    8.6172    1.0805   -0.0598 C   0  0  0  0  0  0  0  0  0  0  0  0
    9.8566    1.4914    0.3716 O   0  0  0  0  0  0  0  0  0  0  0  0
    7.5694    0.9729    0.8534 C   0  0  0  0  0  0  0  0  0  0  0  0
    6.3118    0.5553    0.4124 C   0  0  0  0  0  0  0  0  0  0  0  0
   -0.8926    0.5989   -0.0014 C   0  0  0  0  0  0  0  0  0  0  0  0
   -1.2037   -0.7311    0.0404 C   0  0  0  0  0  0  0  0  0  0  0  0
   -2.3991   -1.2225    0.4852 C   0  0  0  0  0  0  0  0  0  0  0  0
   -2.7045   -2.5861    0.5227 O   0  0  0  0  0  0  0  0  0  0  0  0
   -3.3941   -0.3401    0.9349 C   0  0  0  0  0  0  0  0  0  0  0  0
   -4.6195   -0.8295    1.5144 C   0  0  0  0  0  0  0  0  0  0  0  0
   -4.5200   -2.0251    2.0119 O   0  0  0  0  0  0  0  0  0  0  0  0
   -5.9053   -0.2200    1.6389 C   0  0  0  0  0  0  0  0  0  0  0  0
   -6.5667   -0.4776    2.8605 C   0  0  0  0  0  0  0  0  0  0  0  0
   -5.9690   -1.2545    3.8544 O   0  0  0  0  0  0  0  0  0  0  0  0
   -7.8101    0.0311    3.0939 C   0  0  0  0  0  0  0  0  0  0  0  0
   -8.4633    0.8113    2.1503 C   0  0  0  0  0  0  0  0  0  0  0  0
   -7.8341    1.0666    0.9572 C   0  0  0  0  0  0  0  0  0  0  0  0
   -6.5573    0.5493    0.6980 C   0  0  0  0  0  0  0  0  0  0  0  0
   -6.0650    0.6874   -0.6572 C   0  0  0  0  0  0  0  0  0  0  0  0
   -6.6634    1.5052   -1.4301 O   0  0  0  0  0  0  0  0  0  0  0  0
   -4.9929   -0.0072   -1.1954 O   0  0  0  0  0  0  0  0  0  0  0  0
   -3.1015    1.0079    0.9032 C   0  0  0  0  0  0  0  0  0  0  0  0
   -4.0500    1.9151    1.3439 O   0  0  0  0  0  0  0  0  0  0  0  0
   -1.8607    1.4736    0.4380 C   0  0  0  0  0  0  0  0  0  0  0  0
    2.8356    1.5205   -1.4289 H   0  0  0  0  0  0  0  0  0  0  0  0
    3.5427    0.2651   -3.3274 H   0  0  0  0  0  0  0  0  0  0  0  0
    1.7386   -0.1414   -3.3209 H   0  0  0  0  0  0  0  0  0  0  0  0
    2.2061   -2.3290   -2.8585 H   0  0  0  0  0  0  0  0  0  0  0  0
    3.9857   -1.9251   -2.9439 H   0  0  0  0  0  0  0  0  0  0  0  0
    3.9311   -2.5250   -0.7030 H   0  0  0  0  0  0  0  0  0  0  0  0
    2.2199   -1.9180   -0.4600 H   0  0  0  0  0  0  0  0  0  0  0  0
    3.6921   -0.1450    0.3966 H   0  0  0  0  0  0  0  0  0  0  0  0
    6.9979    0.1257   -2.8485 H   0  0  0  0  0  0  0  0  0  0  0  0
    9.1982    0.8532   -2.0940 H   0  0  0  0  0  0  0  0  0  0  0  0
   10.6613    1.2637   -0.1848 H   0  0  0  0  0  0  0  0  0  0  0  0
    7.7497    1.2154    1.8893 H   0  0  0  0  0  0  0  0  0  0  0  0
    5.5006    0.4690    1.1028 H   0  0  0  0  0  0  0  0  0  0  0  0
   -0.4657   -1.4466   -0.2970 H   0  0  0  0  0  0  0  0  0  0  0  0
   -2.6420   -3.0651   -0.3794 H   0  0  0  0  0  0  0  0  0  0  0  0
   -5.0868   -1.0152    4.2805 H   0  0  0  0  0  0  0  0  0  0  0  0
   -8.3498   -0.1490    4.0284 H   0  0  0  0  0  0  0  0  0  0  0  0
   -9.4420    1.2224    2.3189 H   0  0  0  0  0  0  0  0  0  0  0  0
   -8.3031    1.6648    0.2024 H   0  0  0  0  0  0  0  0  0  0  0  0
   -4.9207   -0.0687   -2.2039 H   0  0  0  0  0  0  0  0  0  0  0  0
   -4.1667    2.1582    2.3142 H   0  0  0  0  0  0  0  0  0  0  0  0
   -1.6895    2.5498    0.4363 H   0  0  0  0  0  0  0  0  0  0  0  0
  1  2  2  0
  2  3  1  0
  3  4  1  0
  4  5  1  0
  5  6  1  0
  6  7  1  0
  7  8  1  0
  8  9  1  0
  9 10  1  0
 10 11  2  0
 11 12  1  0
 12 13  2  0
 13 14  1  0
 13 15  1  0
 15 16  2  0
  2 17  1  0
 17 18  2  0
 18 19  1  0
 19 20  1  0
 19 21  2  0
 21 22  1  0
 22 23  2  0
 22 24  1  0
 24 25  2  0
 25 26  1  0
 25 27  1  0
 27 28  2  0
 28 29  1  0
 29 30  2  0
 30 31  1  0
 31 32  2  0
 31 33  1  0
 21 34  1  0
 34 35  1  0
 34 36  2  0
  8  4  1  0
 16 10  1  0
 36 17  1  0
 30 24  1  0
  4 37  1  6
  5 38  1  0
  5 39  1  0
  6 40  1  0
  6 41  1  0
  7 42  1  0
  7 43  1  0
  8 44  1  1
 11 45  1  0
 12 46  1  0
 14 47  1  0
 15 48  1  0
 16 49  1  0
 18 50  1  0
 20 51  1  0
 26 52  1  0
 27 53  1  0
 28 54  1  0
 29 55  1  0
 33 56  1  0
 35 57  1  0
 36 58  1  0
M  END
$$$$
