
     RDKit          3D

 57 61  0  0  0  0  0  0  0  0999 V2000
   -2.1896   -2.1396   -3.3101 C   0  0  0  0  0  0  0  0  0  0  0  0
   -2.1239   -1.9537   -1.8125 C   0  0  2  0  0  0  0  0  0  0  0  0
   -1.1004   -0.9109   -1.4191 C   0  0  0  0  0  0  0  0  0  0  0  0
   -0.9384   -0.9992    0.0055 N   0  0  0  0  0  0  0  0  0  0  0  0
   -1.0813    0.1579    0.7761 C   0  0  0  0  0  0  0  0  0  0  0  0
   -0.9484    0.1095    2.0474 O   0  0  0  0  0  0  0  0  0  0  0  0
   -1.3798    1.4738    0.2452 C   0  0  0  0  0  0  0  0  0  0  0  0
   -0.3136    2.2740   -0.1147 C   0  0  0  0  0  0  0  0  0  0  0  0
   -0.5020    3.5340   -0.6276 C   0  0  0  0  0  0  0  0  0  0  0  0
   -1.8005    3.9917   -0.7784 C   0  0  0  0  0  0  0  0  0  0  0  0
   -2.0432    5.5957   -1.4318 Cl  0  0  0  0  0  0  0  0  0  0  0  0
   -2.8570    3.1739   -0.4117 C   0  0  0  0  0  0  0  0  0  0  0  0
   -2.6712    1.9152    0.1006 C   0  0  0  0  0  0  0  0  0  0  0  0
   -3.7962    1.1051    0.4660 N   0  0  0  0  0  0  0  0  0  0  0  0
   -5.0522    1.4122    0.2176 N   0  0  0  0  0  0  0  0  0  0  0  0
   -5.8759    0.4522    0.6835 C   0  0  0  0  0  0  0  0  0  0  0  0
   -5.0624   -0.4892    1.2467 C   0  0  0  0  0  0  0  0  0  0  0  0
   -3.7960   -0.0397    1.0860 N   0  0  0  0  0  0  0  0  0  0  0  0
   -0.6323   -2.2860    0.5686 C   0  0  2  0  0  0  0  0  0  0  0  0
    0.5805   -2.3365    1.4205 C   0  0  0  0  0  0  0  0  0  0  0  0
    1.8523   -1.9761    0.7892 C   0  0  0  0  0  0  0  0  0  0  0  0
    2.3573   -0.7007    0.9329 C   0  0  0  0  0  0  0  0  0  0  0  0
    3.5287   -0.2816    0.3493 C   0  0  0  0  0  0  0  0  0  0  0  0
    4.0457    1.0742    0.5113 C   0  0  0  0  0  0  0  0  0  0  0  0
    5.1818    1.4802   -0.0542 N   0  0  0  0  0  0  0  0  0  0  0  0
    5.6628    2.7425    0.0939 C   0  0  0  0  0  0  0  0  0  0  0  0
    4.9721    3.6640    0.8528 C   0  0  0  0  0  0  0  0  0  0  0  0
    3.7908    3.2306    1.4369 C   0  0  0  0  0  0  0  0  0  0  0  0
    3.3640    1.9637    1.2533 N   0  0  0  0  0  0  0  0  0  0  0  0
    4.2037   -1.2139   -0.4107 C   0  0  0  0  0  0  0  0  0  0  0  0
    3.7206   -2.4928   -0.5688 C   0  0  0  0  0  0  0  0  0  0  0  0
    2.5264   -2.9016    0.0333 C   0  0  0  0  0  0  0  0  0  0  0  0
    2.1158   -4.1913   -0.1495 F   0  0  0  0  0  0  0  0  0  0  0  0
   -0.6322   -3.2529   -0.6054 C   0  0  0  0  0  0  0  0  0  0  0  0
   -1.9433   -3.1453   -1.1481 O   0  0  0  0  0  0  0  0  0  0  0  0
   -1.5971   -3.0456   -3.5948 H   0  0  0  0  0  0  0  0  0  0  0  0
   -3.2424   -2.3768   -3.5655 H   0  0  0  0  0  0  0  0  0  0  0  0
   -1.8707   -1.2398   -3.8431 H   0  0  0  0  0  0  0  0  0  0  0  0
   -3.1094   -1.5454   -1.4788 H   0  0  0  0  0  0  0  0  0  0  0  0
   -1.4950    0.0927   -1.7334 H   0  0  0  0  0  0  0  0  0  0  0  0
   -0.1416   -1.0473   -1.9606 H   0  0  0  0  0  0  0  0  0  0  0  0
    0.7125    1.9429   -0.0087 H   0  0  0  0  0  0  0  0  0  0  0  0
    0.3297    4.1804   -0.9176 H   0  0  0  0  0  0  0  0  0  0  0  0
   -3.8716    3.5799   -0.5487 H   0  0  0  0  0  0  0  0  0  0  0  0
   -6.9566    0.4087    0.6360 H   0  0  0  0  0  0  0  0  0  0  0  0
   -5.2970   -1.4234    1.7366 H   0  0  0  0  0  0  0  0  0  0  0  0
   -1.4819   -2.6604    1.2203 H   0  0  0  0  0  0  0  0  0  0  0  0
    0.3779   -1.7565    2.3432 H   0  0  0  0  0  0  0  0  0  0  0  0
    0.6493   -3.4084    1.7924 H   0  0  0  0  0  0  0  0  0  0  0  0
    1.8383    0.0622    1.5335 H   0  0  0  0  0  0  0  0  0  0  0  0
    6.5969    3.0418   -0.3825 H   0  0  0  0  0  0  0  0  0  0  0  0
    5.2859    4.6806    1.0182 H   0  0  0  0  0  0  0  0  0  0  0  0
    3.1655    3.8792    2.0566 H   0  0  0  0  0  0  0  0  0  0  0  0
    5.1430   -0.9150   -0.8922 H   0  0  0  0  0  0  0  0  0  0  0  0
    4.2618   -3.2156   -1.1688 H   0  0  0  0  0  0  0  0  0  0  0  0
   -0.5710   -4.2722   -0.1936 H   0  0  0  0  0  0  0  0  0  0  0  0
    0.1106   -3.0019   -1.3721 H   0  0  0  0  0  0  0  0  0  0  0  0
  1  2  1  0
  2  3  1  0
  3  4  1  0
  4  5  1  0
  5  6  2  0
  5  7  1  0
  7  8  2  0
  8  9  1  0
  9 10  2  0
 10 11  1  0
 10 12  1  0
 12 13  2  0
 13 14  1  0
 14 15  1  0
 15 16  2  0
 16 17  1  0
 17 18  2  0
  4 19  1  0
 19 20  1  0
 20 21  1  0
 21 22  2  0
 22 23  1  0
 23 24  1  0
 24 25  2  0
 25 26  1  0
 26 27  2  0
 27 28  1  0
 28 29  2  0
 23 30  2  0
 30 31  1  0
 31 32  2  0
 32 33  1  0
 19 34  1  0
 34 35  1  0
 35  2  1  0
 13  7  1  0
 18 14  1  0
 32 21  1  0
 29 24  1  0
  1 36  1  0
  1 37  1  0
  1 38  1  0
  2 39  1  1
  3 40  1  0
  3 41  1  0
  8 42  1  0
  9 43  1  0
 12 44  1  0
 16 45  1  0
 17 46  1  0
 19 47  1  1
 20 48  1  0
 20 49  1  0
 22 50  1  0
 26 51  1  0
 27 52  1  0
 28 53  1  0
 30 54  1  0
 31 55  1  0
 34 56  1  0
 34 57  1  0
M  END
$$$$
