
     RDKit          3D

 77 77  0  0  0  0  0  0  0  0999 V2000
    7.2090   -0.4758   -3.4141 C   0  0  0  0  0  0  0  0  0  0  0  0
    7.3703   -0.9647   -2.0042 C   0  0  0  0  0  0  0  0  0  0  0  0
    8.1564   -0.0096   -1.1496 C   0  0  0  0  0  0  0  0  0  0  0  0
    7.5110    1.3503   -1.0483 C   0  0  0  0  0  0  0  0  0  0  0  0
    6.1899    1.3095   -0.4791 N   0  0  0  0  0  0  0  0  0  0  0  0
    5.9497    0.8156    0.8232 C   0  0  0  0  0  0  0  0  0  0  0  0
    6.9356    0.4076    1.4774 O   0  0  0  0  0  0  0  0  0  0  0  0
    4.5666    0.7702    1.4241 C   0  0  2  0  0  0  0  0  0  0  0  0
    4.6816    0.1851    2.7893 C   0  0  0  0  0  0  0  0  0  0  0  0
    3.6635    0.0214    0.5114 C   0  0  0  0  0  0  0  0  0  0  0  0
    2.2315   -0.1090    1.0066 C   0  0  2  0  0  0  0  0  0  0  0  0
    1.5871   -0.8520   -0.0223 O   0  0  0  0  0  0  0  0  0  0  0  0
    1.5244    1.2008    1.0517 C   0  0  1  0  0  0  0  0  0  0  0  0
    1.6139    1.8658   -0.2440 N   0  0  0  0  0  0  0  0  0  0  0  0
    0.2379    1.3138    1.7433 C   0  0  0  0  0  0  0  0  0  0  0  0
   -0.8859    0.5411    1.3733 N   0  0  0  0  0  0  0  0  0  0  0  0
   -1.7016    1.0000    0.2670 C   0  0  0  0  0  0  0  0  0  0  0  0
   -1.3982    2.0560   -0.3064 O   0  0  0  0  0  0  0  0  0  0  0  0
   -2.8741    0.2620   -0.2030 C   0  0  0  0  0  0  0  0  0  0  0  0
   -2.7945   -0.5759   -1.3053 C   0  0  0  0  0  0  0  0  0  0  0  0
   -3.9114   -1.2550   -1.7205 C   0  0  0  0  0  0  0  0  0  0  0  0
   -5.1449   -1.1515   -1.0889 C   0  0  0  0  0  0  0  0  0  0  0  0
   -6.2405   -1.8877   -1.5705 O   0  0  0  0  0  0  0  0  0  0  0  0
   -6.1590   -2.7301   -2.6750 C   0  0  0  0  0  0  0  0  0  0  0  0
   -5.2413   -0.3286   -0.0031 C   0  0  0  0  0  0  0  0  0  0  0  0
   -6.4647   -0.0540    0.7338 C   0  0  0  0  0  0  0  0  0  0  0  0
   -7.2951    1.0139    0.3486 N   0  0  0  0  0  0  0  0  0  0  0  0
   -7.9641    1.2367   -0.8505 C   0  0  0  0  0  0  0  0  0  0  0  0
   -7.8930    0.4484   -1.7879 O   0  0  0  0  0  0  0  0  0  0  0  0
   -8.7646    2.3742   -1.0733 O   0  0  0  0  0  0  0  0  0  0  0  0
   -9.4394    2.5921   -2.2970 C   0  0  0  0  0  0  0  0  0  0  0  0
   -4.0987    0.3586    0.4137 C   0  0  0  0  0  0  0  0  0  0  0  0
   -1.3825   -0.6101    2.0659 C   0  0  0  0  0  0  0  0  0  0  0  0
   -1.8959   -0.1727    3.4755 C   0  0  0  0  0  0  0  0  0  0  0  0
   -0.4556   -1.7403    2.3417 C   0  0  0  0  0  0  0  0  0  0  0  0
    6.9996   -1.3709   -4.0574 H   0  0  0  0  0  0  0  0  0  0  0  0
    8.1438    0.0258   -3.7609 H   0  0  0  0  0  0  0  0  0  0  0  0
    6.3639    0.2439   -3.5073 H   0  0  0  0  0  0  0  0  0  0  0  0
    6.3571   -1.1414   -1.5708 H   0  0  0  0  0  0  0  0  0  0  0  0
    7.9049   -1.9244   -2.0258 H   0  0  0  0  0  0  0  0  0  0  0  0
    9.1341    0.1378   -1.6663 H   0  0  0  0  0  0  0  0  0  0  0  0
    8.3471   -0.4511   -0.1695 H   0  0  0  0  0  0  0  0  0  0  0  0
    8.1952    1.9869   -0.4422 H   0  0  0  0  0  0  0  0  0  0  0  0
    7.5059    1.7803   -2.0653 H   0  0  0  0  0  0  0  0  0  0  0  0
    5.3759    1.6529   -1.0369 H   0  0  0  0  0  0  0  0  0  0  0  0
    4.2243    1.8243    1.4955 H   0  0  0  0  0  0  0  0  0  0  0  0
    5.6530    0.5570    3.2223 H   0  0  0  0  0  0  0  0  0  0  0  0
    4.7903   -0.9177    2.7544 H   0  0  0  0  0  0  0  0  0  0  0  0
    3.9068    0.5209    3.5049 H   0  0  0  0  0  0  0  0  0  0  0  0
    4.0412   -1.0406    0.4396 H   0  0  0  0  0  0  0  0  0  0  0  0
    3.6432    0.4055   -0.5159 H   0  0  0  0  0  0  0  0  0  0  0  0
    2.2091   -0.7168    1.9050 H   0  0  0  0  0  0  0  0  0  0  0  0
    2.2161   -1.4650   -0.4507 H   0  0  0  0  0  0  0  0  0  0  0  0
    2.2441    1.8677    1.6889 H   0  0  0  0  0  0  0  0  0  0  0  0
    1.2053    2.8160   -0.2537 H   0  0  0  0  0  0  0  0  0  0  0  0
    1.1227    1.2844   -0.9465 H   0  0  0  0  0  0  0  0  0  0  0  0
    0.4682    1.1610    2.8625 H   0  0  0  0  0  0  0  0  0  0  0  0
   -0.0848    2.4173    1.7725 H   0  0  0  0  0  0  0  0  0  0  0  0
   -1.8285   -0.6653   -1.8093 H   0  0  0  0  0  0  0  0  0  0  0  0
   -3.8509   -1.9095   -2.5825 H   0  0  0  0  0  0  0  0  0  0  0  0
   -6.1305   -2.1150   -3.6045 H   0  0  0  0  0  0  0  0  0  0  0  0
   -7.0879   -3.3404   -2.7399 H   0  0  0  0  0  0  0  0  0  0  0  0
   -5.2910   -3.4308   -2.6254 H   0  0  0  0  0  0  0  0  0  0  0  0
   -6.2806    0.0111    1.8544 H   0  0  0  0  0  0  0  0  0  0  0  0
   -7.1005   -0.9921    0.6721 H   0  0  0  0  0  0  0  0  0  0  0  0
   -7.4528    1.8051    1.0873 H   0  0  0  0  0  0  0  0  0  0  0  0
   -9.0509    1.9753   -3.1232 H   0  0  0  0  0  0  0  0  0  0  0  0
   -9.4993    3.6678   -2.5553 H   0  0  0  0  0  0  0  0  0  0  0  0
  -10.4968    2.2425   -2.1231 H   0  0  0  0  0  0  0  0  0  0  0  0
   -4.1453    1.0282    1.2875 H   0  0  0  0  0  0  0  0  0  0  0  0
   -2.3521   -0.9710    1.5908 H   0  0  0  0  0  0  0  0  0  0  0  0
   -2.5068   -1.0275    3.8227 H   0  0  0  0  0  0  0  0  0  0  0  0
   -2.5316    0.7063    3.4038 H   0  0  0  0  0  0  0  0  0  0  0  0
   -1.0320   -0.0944    4.1572 H   0  0  0  0  0  0  0  0  0  0  0  0
   -1.0553   -2.4685    2.9797 H   0  0  0  0  0  0  0  0  0  0  0  0
   -0.0207   -2.2515    1.4895 H   0  0  0  0  0  0  0  0  0  0  0  0
    0.3235   -1.3715    3.0385 H   0  0  0  0  0  0  0  0  0  0  0  0
  1  2  1  0
  2  3  1  0
  3  4  1  0
  4  5  1  0
  5  6  1  0
  6  7  2  0
  6  8  1  0
  8  9  1  0
  8 10  1  0
 10 11  1  0
 11 12  1  0
 11 13  1  0
 13 14  1  0
 13 15  1  0
 15 16  1  0
 16 17  1  0
 17 18  2  0
 17 19  1  0
 19 20  2  0
 20 21  1  0
 21 22  2  0
 22 23  1  0
 23 24  1  0
 22 25  1  0
 25 26  1  0
 26 27  1  0
 27 28  1  0
 28 29  2  0
 28 30  1  0
 30 31  1  0
 25 32  2  0
 16 33  1  0
 33 34  1  0
 33 35  1  0
 32 19  1  0
  1 36  1  0
  1 37  1  0
  1 38  1  0
  2 39  1  0
  2 40  1  0
  3 41  1  0
  3 42  1  0
  4 43  1  0
  4 44  1  0
  5 45  1  0
  8 46  1  1
  9 47  1  0
  9 48  1  0
  9 49  1  0
 10 50  1  0
 10 51  1  0
 11 52  1  1
 12 53  1  0
 13 54  1  1
 14 55  1  0
 14 56  1  0
 15 57  1  0
 15 58  1  0
 20 59  1  0
 21 60  1  0
 24 61  1  0
 24 62  1  0
 24 63  1  0
 26 64  1  0
 26 65  1  0
 27 66  1  0
 31 67  1  0
 31 68  1  0
 31 69  1  0
 32 70  1  0
 33 71  1  0
 34 72  1  0
 34 73  1  0
 34 74  1  0
 35 75  1  0
 35 76  1  0
 35 77  1  0
M  END
$$$$
