
     RDKit          3D

 39 41  0  0  0  0  0  0  0  0999 V2000
   -3.7255   -2.1466    0.8043 C   0  0  0  0  0  0  0  0  0  0  0  0
   -3.7428   -0.9520   -0.1587 C   0  0  0  0  0  0  0  0  0  0  0  0
   -5.0881   -0.3320   -0.1073 C   0  0  0  0  0  0  0  0  0  0  0  0
   -5.1127    1.1524   -0.0264 C   0  0  0  0  0  0  0  0  0  0  0  0
   -3.8835    1.8295   -0.5378 C   0  0  0  0  0  0  0  0  0  0  0  0
   -2.7359    1.3943    0.3841 C   0  0  0  0  0  0  0  0  0  0  0  0
   -2.6324   -0.0759    0.2322 C   0  0  0  0  0  0  0  0  0  0  0  0
   -1.4904   -0.6248    0.4583 N   0  0  0  0  0  0  0  0  0  0  0  0
   -0.3449    0.0124    0.8292 N   0  0  0  0  0  0  0  0  0  0  0  0
    0.9094   -0.3627    0.2175 C   0  0  0  0  0  0  0  0  0  0  0  0
    2.0491   -0.1129    0.2222 N   0  0  0  0  0  0  0  0  0  0  0  0
    3.0548   -0.5937   -0.4391 C   0  0  0  0  0  0  0  0  0  0  0  0
    4.4364   -0.1471   -0.2970 C   0  0  0  0  0  0  0  0  0  0  0  0
    4.7555    0.8745    0.6071 C   0  0  0  0  0  0  0  0  0  0  0  0
    6.0298    1.3418    0.7906 C   0  0  0  0  0  0  0  0  0  0  0  0
    7.0910    0.8234    0.0825 C   0  0  0  0  0  0  0  0  0  0  0  0
    8.3497    1.2928    0.2712 F   0  0  0  0  0  0  0  0  0  0  0  0
    6.8012   -0.1767   -0.8073 C   0  0  0  0  0  0  0  0  0  0  0  0
    5.4976   -0.6580   -0.9981 C   0  0  0  0  0  0  0  0  0  0  0  0
    5.3077   -1.6528   -1.9031 F   0  0  0  0  0  0  0  0  0  0  0  0
    2.6085   -1.6503   -1.3505 C   0  0  0  0  0  0  0  0  0  0  0  0
    0.9069   -1.7334   -1.0824 S   0  0  0  0  0  0  0  0  0  0  0  0
   -4.5687   -2.8371    0.6022 H   0  0  0  0  0  0  0  0  0  0  0  0
   -2.7397   -2.6243    0.7053 H   0  0  0  0  0  0  0  0  0  0  0  0
   -3.8105   -1.7150    1.8160 H   0  0  0  0  0  0  0  0  0  0  0  0
   -3.5381   -1.4103   -1.1696 H   0  0  0  0  0  0  0  0  0  0  0  0
   -5.6480   -0.6263   -1.0383 H   0  0  0  0  0  0  0  0  0  0  0  0
   -5.7100   -0.7636    0.7273 H   0  0  0  0  0  0  0  0  0  0  0  0
   -6.0075    1.6083   -0.5367 H   0  0  0  0  0  0  0  0  0  0  0  0
   -5.2375    1.4339    1.0569 H   0  0  0  0  0  0  0  0  0  0  0  0
   -4.0440    2.9260   -0.4571 H   0  0  0  0  0  0  0  0  0  0  0  0
   -3.6133    1.5029   -1.5537 H   0  0  0  0  0  0  0  0  0  0  0  0
   -3.0415    1.6970    1.4036 H   0  0  0  0  0  0  0  0  0  0  0  0
   -1.8245    1.9325    0.0940 H   0  0  0  0  0  0  0  0  0  0  0  0
   -0.2659    0.7752    1.5367 H   0  0  0  0  0  0  0  0  0  0  0  0
    3.9057    1.2865    1.1712 H   0  0  0  0  0  0  0  0  0  0  0  0
    6.2199    2.1429    1.5118 H   0  0  0  0  0  0  0  0  0  0  0  0
    7.6042   -0.6063   -1.3785 H   0  0  0  0  0  0  0  0  0  0  0  0
    3.2780   -2.2244   -2.0316 H   0  0  0  0  0  0  0  0  0  0  0  0
  1  2  1  0
  2  3  1  0
  3  4  1  0
  4  5  1  0
  5  6  1  0
  6  7  1  0
  7  8  2  3
  8  9  1  0
  9 10  1  0
 10 11  2  0
 11 12  1  0
 12 13  1  0
 13 14  2  0
 14 15  1  0
 15 16  2  0
 16 17  1  0
 16 18  1  0
 18 19  2  0
 19 20  1  0
 12 21  2  0
 21 22  1  0
  7  2  1  0
 22 10  1  0
 19 13  1  0
  1 23  1  0
  1 24  1  0
  1 25  1  0
  2 26  1  0
  3 27  1  0
  3 28  1  0
  4 29  1  0
  4 30  1  0
  5 31  1  0
  5 32  1  0
  6 33  1  0
  6 34  1  0
  9 35  1  0
 14 36  1  0
 15 37  1  0
 18 38  1  0
 21 39  1  0
M  END
$$$$
