
     RDKit          3D

 29 30  0  0  0  0  0  0  0  0999 V2000
   -6.1538   -0.0867    0.1450 O   0  0  0  0  0  0  0  0  0  0  0  0
   -4.7639   -0.0196    0.1651 C   0  0  0  0  0  0  0  0  0  0  0  0
   -3.9984   -0.8456   -0.6356 C   0  0  0  0  0  0  0  0  0  0  0  0
   -2.6230   -0.7258   -0.5655 C   0  0  0  0  0  0  0  0  0  0  0  0
   -1.9847    0.1555    0.2438 C   0  0  0  0  0  0  0  0  0  0  0  0
   -0.5410    0.2949    0.3301 C   0  0  0  0  0  0  0  0  0  0  0  0
    0.3458   -0.4034   -0.3543 C   0  0  0  0  0  0  0  0  0  0  0  0
    1.7997   -0.3053   -0.3070 C   0  0  0  0  0  0  0  0  0  0  0  0
    2.6202   -1.0959   -1.0765 C   0  0  0  0  0  0  0  0  0  0  0  0
    3.9883   -0.9800   -1.0098 C   0  0  0  0  0  0  0  0  0  0  0  0
    4.6949   -1.8418   -1.8426 O   0  0  0  0  0  0  0  0  0  0  0  0
    4.6167   -0.0765   -0.1791 C   0  0  0  0  0  0  0  0  0  0  0  0
    3.8102    0.7117    0.5876 C   0  0  0  0  0  0  0  0  0  0  0  0
    4.4514    1.6287    1.4307 O   0  0  0  0  0  0  0  0  0  0  0  0
    2.4429    0.5899    0.5154 C   0  0  0  0  0  0  0  0  0  0  0  0
   -2.7892    0.9543    1.0201 C   0  0  0  0  0  0  0  0  0  0  0  0
   -4.1581    0.8912    1.0032 C   0  0  0  0  0  0  0  0  0  0  0  0
   -6.7103    0.6608   -0.2201 H   0  0  0  0  0  0  0  0  0  0  0  0
   -4.4803   -1.5706   -1.3027 H   0  0  0  0  0  0  0  0  0  0  0  0
   -2.0767   -1.3837   -1.2014 H   0  0  0  0  0  0  0  0  0  0  0  0
   -0.1050    1.0209    0.9996 H   0  0  0  0  0  0  0  0  0  0  0  0
   -0.0673   -1.1523   -1.0460 H   0  0  0  0  0  0  0  0  0  0  0  0
    2.1296   -1.8141   -1.7371 H   0  0  0  0  0  0  0  0  0  0  0  0
    5.1149   -1.4719   -2.6840 H   0  0  0  0  0  0  0  0  0  0  0  0
    5.6907   -0.0761   -0.2120 H   0  0  0  0  0  0  0  0  0  0  0  0
    3.8996    2.4393    1.6880 H   0  0  0  0  0  0  0  0  0  0  0  0
    1.9042    1.2605    1.1631 H   0  0  0  0  0  0  0  0  0  0  0  0
   -2.3103    1.6822    1.6899 H   0  0  0  0  0  0  0  0  0  0  0  0
   -4.7471    1.5595    1.6500 H   0  0  0  0  0  0  0  0  0  0  0  0
  1  2  1  0
  2  3  2  0
  3  4  1  0
  4  5  2  0
  5  6  1  0
  6  7  2  0
  7  8  1  0
  8  9  2  0
  9 10  1  0
 10 11  1  0
 10 12  2  0
 12 13  1  0
 13 14  1  0
 13 15  2  0
  5 16  1  0
 16 17  2  0
 17  2  1  0
 15  8  1  0
  1 18  1  0
  3 19  1  0
  4 20  1  0
  6 21  1  0
  7 22  1  0
  9 23  1  0
 11 24  1  0
 12 25  1  0
 14 26  1  0
 15 27  1  0
 16 28  1  0
 17 29  1  0
M  END
$$$$
