
     RDKit          3D

 31 34  0  0  0  0  0  0  0  0999 V2000
    1.5713   -3.5354    0.3845 O   0  0  0  0  0  0  0  0  0  0  0  0
    1.7811   -2.2929    0.2641 C   0  0  0  0  0  0  0  0  0  0  0  0
    3.0467   -1.8122    0.2076 N   0  0  0  0  0  0  0  0  0  0  0  0
    3.2716   -0.4811    0.0786 C   0  0  0  0  0  0  0  0  0  0  0  0
    4.5300    0.0487    0.0175 C   0  0  0  0  0  0  0  0  0  0  0  0
    4.7391    1.4195   -0.1152 C   0  0  0  0  0  0  0  0  0  0  0  0
    6.5280    2.1248   -0.1974 Br  0  0  0  0  0  0  0  0  0  0  0  0
    3.6719    2.2826   -0.1887 C   0  0  0  0  0  0  0  0  0  0  0  0
    2.4015    1.7600   -0.1282 C   0  0  0  0  0  0  0  0  0  0  0  0
    2.2030    0.3852    0.0048 C   0  0  0  0  0  0  0  0  0  0  0  0
    0.9150   -0.1049    0.0623 C   0  0  0  0  0  0  0  0  0  0  0  0
   -0.2806    0.4533    0.0189 N   0  0  0  0  0  0  0  0  0  0  0  0
   -1.2780   -0.4829    0.1166 C   0  0  0  0  0  0  0  0  0  0  0  0
   -2.6947   -0.1530    0.0969 C   0  0  0  0  0  0  0  0  0  0  0  0
   -3.0624    1.1867   -0.0280 C   0  0  0  0  0  0  0  0  0  0  0  0
   -4.3457    1.6247   -0.0592 C   0  0  0  0  0  0  0  0  0  0  0  0
   -5.3632    0.6850    0.0390 C   0  0  0  0  0  0  0  0  0  0  0  0
   -5.0516   -0.6409    0.1630 C   0  0  0  0  0  0  0  0  0  0  0  0
   -3.7155   -1.0547    0.1915 C   0  0  0  0  0  0  0  0  0  0  0  0
   -3.4189   -2.7456    0.3505 Cl  0  0  0  0  0  0  0  0  0  0  0  0
   -0.6566   -1.6560    0.2235 N   0  0  0  0  0  0  0  0  0  0  0  0
    0.6867   -1.4584    0.1935 C   0  0  0  0  0  0  0  0  0  0  0  0
    3.8596   -2.4585    0.2626 H   0  0  0  0  0  0  0  0  0  0  0  0
    5.3933   -0.5906    0.0714 H   0  0  0  0  0  0  0  0  0  0  0  0
    3.8176    3.3439   -0.2913 H   0  0  0  0  0  0  0  0  0  0  0  0
    1.5290    2.3897   -0.1811 H   0  0  0  0  0  0  0  0  0  0  0  0
   -2.2731    1.9549   -0.1079 H   0  0  0  0  0  0  0  0  0  0  0  0
   -4.5491    2.6776   -0.1581 H   0  0  0  0  0  0  0  0  0  0  0  0
   -6.3709    1.0827    0.0093 H   0  0  0  0  0  0  0  0  0  0  0  0
   -5.8376   -1.3502    0.2373 H   0  0  0  0  0  0  0  0  0  0  0  0
   -1.0476   -2.6018    0.3171 H   0  0  0  0  0  0  0  0  0  0  0  0
  1  2  2  0
  2  3  1  0
  3  4  1  0
  4  5  2  0
  5  6  1  0
  6  7  1  0
  6  8  2  0
  8  9  1  0
  9 10  2  0
 10 11  1  0
 11 12  1  0
 12 13  2  0
 13 14  1  0
 14 15  2  0
 15 16  1  0
 16 17  2  0
 17 18  1  0
 18 19  2  0
 19 20  1  0
 13 21  1  0
 21 22  1  0
 22  2  1  0
 10  4  1  0
 22 11  2  0
 19 14  1  0
  3 23  1  0
  5 24  1  0
  8 25  1  0
  9 26  1  0
 15 27  1  0
 16 28  1  0
 17 29  1  0
 18 30  1  0
 21 31  1  0
M  END
$$$$
