
     RDKit          3D

 59 64  0  0  0  0  0  0  0  0999 V2000
   -2.0920   -4.9890    3.9914 C   0  0  0  0  0  0  0  0  0  0  0  0
   -1.5925   -3.9555    3.0588 N   0  0  0  0  0  0  0  0  0  0  0  0
   -1.8788   -2.6652    3.0926 C   0  0  0  0  0  0  0  0  0  0  0  0
   -2.6275   -2.0965    3.8954 O   0  0  0  0  0  0  0  0  0  0  0  0
   -1.2187   -1.9815    2.0713 N   0  0  0  0  0  0  0  0  0  0  0  0
   -1.3348   -0.5996    1.8710 C   0  0  0  0  0  0  0  0  0  0  0  0
   -0.5436    0.3631    2.5522 C   0  0  0  0  0  0  0  0  0  0  0  0
   -0.7481    1.6923    2.3052 C   0  0  0  0  0  0  0  0  0  0  0  0
   -1.6485    2.1815    1.4593 C   0  0  0  0  0  0  0  0  0  0  0  0
   -1.9076    3.6305    1.0758 C   0  0  0  0  0  0  0  0  0  0  0  0
   -0.9559    4.5529    1.8046 C   0  0  0  0  0  0  0  0  0  0  0  0
   -3.3357    3.9947    1.4794 C   0  0  0  0  0  0  0  0  0  0  0  0
   -1.7496    3.7698   -0.3077 C   0  0  0  0  0  0  0  0  0  0  0  0
   -1.6051    3.8929   -1.5550 N   0  0  0  0  0  0  0  0  0  0  0  0
   -2.4646    1.2501    0.7594 C   0  0  0  0  0  0  0  0  0  0  0  0
   -2.2451   -0.0701    1.0176 C   0  0  0  0  0  0  0  0  0  0  0  0
   -0.5307   -2.9328    1.4365 C   0  0  0  0  0  0  0  0  0  0  0  0
    0.3209   -2.8984    0.3289 C   0  0  0  0  0  0  0  0  0  0  0  0
    0.5770   -1.7309   -0.3060 C   0  0  0  0  0  0  0  0  0  0  0  0
    1.4229   -1.7021   -1.4156 C   0  0  0  0  0  0  0  0  0  0  0  0
    1.6822   -0.4702   -2.1219 C   0  0  0  0  0  0  0  0  0  0  0  0
    0.6433    0.4975   -2.1586 C   0  0  0  0  0  0  0  0  0  0  0  0
    0.8537    1.6398   -2.8062 N   0  0  0  0  0  0  0  0  0  0  0  0
    1.9529    2.0152   -3.4502 C   0  0  0  0  0  0  0  0  0  0  0  0
    2.1464    3.1981   -4.1066 C   0  0  0  0  0  0  0  0  0  0  0  0
    3.3117    3.5378   -4.7585 C   0  0  0  0  0  0  0  0  0  0  0  0
    4.3358    2.5931   -4.7279 C   0  0  0  0  0  0  0  0  0  0  0  0
    4.1538    1.4106   -4.0775 C   0  0  0  0  0  0  0  0  0  0  0  0
    3.0036    1.0782   -3.4358 C   0  0  0  0  0  0  0  0  0  0  0  0
    2.8056   -0.1010   -2.7761 C   0  0  0  0  0  0  0  0  0  0  0  0
    1.9852   -2.8969   -1.8409 C   0  0  0  0  0  0  0  0  0  0  0  0
    1.7123   -4.0687   -1.1799 C   0  0  0  0  0  0  0  0  0  0  0  0
    0.8844   -4.1096   -0.0906 C   0  0  0  0  0  0  0  0  0  0  0  0
    0.6469   -5.2789    0.5168 N   0  0  0  0  0  0  0  0  0  0  0  0
   -0.1583   -5.3290    1.5684 C   0  0  0  0  0  0  0  0  0  0  0  0
   -0.7492   -4.1507    2.0313 C   0  0  0  0  0  0  0  0  0  0  0  0
   -3.1037   -5.3379    3.6686 H   0  0  0  0  0  0  0  0  0  0  0  0
   -1.3548   -5.7909    4.1256 H   0  0  0  0  0  0  0  0  0  0  0  0
   -2.1895   -4.4723    4.9807 H   0  0  0  0  0  0  0  0  0  0  0  0
    0.1790    0.0159    3.2328 H   0  0  0  0  0  0  0  0  0  0  0  0
   -0.1326    2.4434    2.8561 H   0  0  0  0  0  0  0  0  0  0  0  0
   -0.8294    5.4725    1.2129 H   0  0  0  0  0  0  0  0  0  0  0  0
   -1.4183    4.7345    2.7930 H   0  0  0  0  0  0  0  0  0  0  0  0
    0.0630    4.1463    1.9339 H   0  0  0  0  0  0  0  0  0  0  0  0
   -3.3425    4.6903    2.3416 H   0  0  0  0  0  0  0  0  0  0  0  0
   -3.8876    3.0912    1.6989 H   0  0  0  0  0  0  0  0  0  0  0  0
   -3.8028    4.4801    0.5915 H   0  0  0  0  0  0  0  0  0  0  0  0
   -3.1992    1.6365    0.0700 H   0  0  0  0  0  0  0  0  0  0  0  0
   -2.8804   -0.7833    0.4728 H   0  0  0  0  0  0  0  0  0  0  0  0
    0.1560   -0.8102    0.0210 H   0  0  0  0  0  0  0  0  0  0  0  0
   -0.2870    0.2781   -1.6591 H   0  0  0  0  0  0  0  0  0  0  0  0
    1.3115    3.8916   -4.0958 H   0  0  0  0  0  0  0  0  0  0  0  0
    3.3931    4.4848   -5.2471 H   0  0  0  0  0  0  0  0  0  0  0  0
    5.2368    2.8478   -5.2325 H   0  0  0  0  0  0  0  0  0  0  0  0
    4.9651    0.7087   -4.0816 H   0  0  0  0  0  0  0  0  0  0  0  0
    3.6276   -0.8651   -2.7550 H   0  0  0  0  0  0  0  0  0  0  0  0
    2.6477   -2.8833   -2.6892 H   0  0  0  0  0  0  0  0  0  0  0  0
    2.1802   -5.0037   -1.5506 H   0  0  0  0  0  0  0  0  0  0  0  0
   -0.3843   -6.2464    2.1104 H   0  0  0  0  0  0  0  0  0  0  0  0
  1  2  1  0
  2  3  1  0
  3  4  2  0
  3  5  1  0
  5  6  1  0
  6  7  2  0
  7  8  1  0
  8  9  2  0
  9 10  1  0
 10 11  1  0
 10 12  1  0
 10 13  1  0
 13 14  3  0
  9 15  1  0
 15 16  2  0
  5 17  1  0
 17 18  2  0
 18 19  1  0
 19 20  2  0
 20 21  1  0
 21 22  2  0
 22 23  1  0
 23 24  2  0
 24 25  1  0
 25 26  2  0
 26 27  1  0
 27 28  2  0
 28 29  1  0
 29 30  2  0
 20 31  1  0
 31 32  2  0
 32 33  1  0
 33 34  2  0
 34 35  1  0
 35 36  2  0
 36  2  1  0
 16  6  1  0
 36 17  1  0
 33 18  1  0
 30 21  1  0
 29 24  1  0
  1 37  1  0
  1 38  1  0
  1 39  1  0
  7 40  1  0
  8 41  1  0
 11 42  1  0
 11 43  1  0
 11 44  1  0
 12 45  1  0
 12 46  1  0
 12 47  1  0
 15 48  1  0
 16 49  1  0
 19 50  1  0
 22 51  1  0
 25 52  1  0
 26 53  1  0
 27 54  1  0
 28 55  1  0
 30 56  1  0
 31 57  1  0
 32 58  1  0
 35 59  1  0
M  END
$$$$
