
     RDKit          3D

 43 45  0  0  0  0  0  0  0  0999 V2000
   -1.8403    0.1001   -2.0134 C   0  0  0  0  0  0  0  0  0  0  0  0
   -2.4431    0.3583   -0.6278 C   0  0  1  0  0  0  0  0  0  0  0  0
   -1.3082    0.3280    0.3514 C   0  0  0  0  0  0  0  0  0  0  0  0
   -0.0073    0.1322   -0.0682 C   0  0  0  0  0  0  0  0  0  0  0  0
    1.0668    0.1058    0.8315 C   0  0  0  0  0  0  0  0  0  0  0  0
    2.3518   -0.1004    0.2989 N   0  0  0  0  0  0  0  0  0  0  0  0
    3.5669   -0.1621    1.0227 C   0  0  0  0  0  0  0  0  0  0  0  0
    3.5557   -0.0261    2.2645 O   0  0  0  0  0  0  0  0  0  0  0  0
    4.8611   -0.3862    0.3352 C   0  0  0  0  0  0  0  0  0  0  0  0
    6.0043   -0.4353    1.0991 C   0  0  0  0  0  0  0  0  0  0  0  0
    7.2464   -0.6397    0.5365 C   0  0  0  0  0  0  0  0  0  0  0  0
    7.3445   -0.7982   -0.8196 C   0  0  0  0  0  0  0  0  0  0  0  0
    8.9144   -1.0583   -1.5458 Cl  0  0  0  0  0  0  0  0  0  0  0  0
    6.1769   -0.7435   -1.5576 C   0  0  0  0  0  0  0  0  0  0  0  0
    4.9624   -0.5408   -0.9814 N   0  0  0  0  0  0  0  0  0  0  0  0
    0.7332    0.2867    2.1444 C   0  0  0  0  0  0  0  0  0  0  0  0
   -0.5767    0.4861    2.5888 C   0  0  0  0  0  0  0  0  0  0  0  0
   -1.6105    0.5070    1.6818 C   0  0  0  0  0  0  0  0  0  0  0  0
   -2.9015    0.6881    2.0304 F   0  0  0  0  0  0  0  0  0  0  0  0
   -3.1010    1.6789   -0.6500 C   0  0  0  0  0  0  0  0  0  0  0  0
   -4.8552    1.5683   -0.7596 S   0  0  0  0  0  6  0  0  0  0  0  0
   -5.4595    1.7414    0.6131 O   0  0  0  0  0  0  0  0  0  0  0  0
   -5.4518    2.6426   -1.6140 O   0  0  0  0  0  0  0  0  0  0  0  0
   -5.2194   -0.0530   -1.4024 C   0  0  0  0  0  0  0  0  0  0  0  0
   -4.4909   -0.9909   -0.4679 C   0  0  0  0  0  0  0  0  0  0  0  0
   -5.1745   -2.1232    0.0611 N   0  0  0  0  0  0  0  0  0  0  0  0
   -3.2993   -0.6969   -0.2170 N   0  0  0  0  0  0  0  0  0  0  0  0
   -1.1151    0.8966   -2.2753 H   0  0  0  0  0  0  0  0  0  0  0  0
   -1.3320   -0.8659   -2.0395 H   0  0  0  0  0  0  0  0  0  0  0  0
   -2.6196    0.1803   -2.8149 H   0  0  0  0  0  0  0  0  0  0  0  0
    0.2434   -0.0113   -1.1149 H   0  0  0  0  0  0  0  0  0  0  0  0
    2.5009   -0.2318   -0.7538 H   0  0  0  0  0  0  0  0  0  0  0  0
    5.9731   -0.3152    2.1722 H   0  0  0  0  0  0  0  0  0  0  0  0
    8.1203   -0.6718    1.1705 H   0  0  0  0  0  0  0  0  0  0  0  0
    6.2264   -0.8653   -2.6269 H   0  0  0  0  0  0  0  0  0  0  0  0
    1.4991    0.2801    2.8980 H   0  0  0  0  0  0  0  0  0  0  0  0
   -0.8017    0.6254    3.6333 H   0  0  0  0  0  0  0  0  0  0  0  0
   -2.8855    2.1951    0.3335 H   0  0  0  0  0  0  0  0  0  0  0  0
   -2.7725    2.3319   -1.4956 H   0  0  0  0  0  0  0  0  0  0  0  0
   -6.3024   -0.2066   -1.2157 H   0  0  0  0  0  0  0  0  0  0  0  0
   -4.9312   -0.1637   -2.4416 H   0  0  0  0  0  0  0  0  0  0  0  0
   -4.7651   -3.0622   -0.0169 H   0  0  0  0  0  0  0  0  0  0  0  0
   -6.0830   -1.9843    0.5214 H   0  0  0  0  0  0  0  0  0  0  0  0
  2  1  1  6
  2  3  1  0
  3  4  2  0
  4  5  1  0
  5  6  1  0
  6  7  1  0
  7  8  2  0
  7  9  1  0
  9 10  2  0
 10 11  1  0
 11 12  2  0
 12 13  1  0
 12 14  1  0
 14 15  2  0
  5 16  2  0
 16 17  1  0
 17 18  2  0
 18 19  1  0
  2 20  1  0
 20 21  1  0
 21 22  2  0
 21 23  2  0
 21 24  1  0
 24 25  1  0
 25 26  1  0
 25 27  2  0
 27  2  1  0
 18  3  1  0
 15  9  1  0
  1 28  1  0
  1 29  1  0
  1 30  1  0
  4 31  1  0
  6 32  1  0
 10 33  1  0
 11 34  1  0
 14 35  1  0
 16 36  1  0
 17 37  1  0
 20 38  1  0
 20 39  1  0
 24 40  1  0
 24 41  1  0
 26 42  1  0
 26 43  1  0
M  END
$$$$
