
     RDKit          3D

 52 54  0  0  0  0  0  0  0  0999 V2000
    4.8763    1.9785    1.1666 C   0  0  0  0  0  0  0  0  0  0  0  0
    4.7095    0.5009    0.9087 C   0  0  0  0  0  0  0  0  0  0  0  0
    3.8261   -0.1667    1.9114 C   0  0  0  0  0  0  0  0  0  0  0  0
    2.4249    0.4023    1.9521 C   0  0  0  0  0  0  0  0  0  0  0  0
    1.7397    0.2605    0.6175 C   0  0  0  0  0  0  0  0  0  0  0  0
    1.6174   -1.1634    0.1752 C   0  0  0  0  0  0  0  0  0  0  0  0
    0.8985   -1.1840   -1.1769 C   0  0  0  0  0  0  0  0  0  0  0  0
   -0.4529   -0.6240   -1.1243 C   0  0  0  0  0  0  0  0  0  0  0  0
   -1.0082   -0.1131   -2.2791 C   0  0  0  0  0  0  0  0  0  0  0  0
   -2.2991    0.4252   -2.3043 C   0  0  0  0  0  0  0  0  0  0  0  0
   -3.0458    0.4498   -1.1447 C   0  0  0  0  0  0  0  0  0  0  0  0
   -4.3407    0.9894   -1.1676 O   0  0  0  0  0  0  0  0  0  0  0  0
   -5.0555    0.9938    0.0209 C   0  0  0  0  0  0  0  0  0  0  0  0
   -5.8717   -0.0400    0.4143 C   0  0  0  0  0  0  0  0  0  0  0  0
   -6.5850   -0.0408    1.5957 C   0  0  0  0  0  0  0  0  0  0  0  0
   -6.4618    1.0656    2.4178 C   0  0  0  0  0  0  0  0  0  0  0  0
   -5.6495    2.1263    2.0556 C   0  0  0  0  0  0  0  0  0  0  0  0
   -4.9553    2.0817    0.8639 C   0  0  0  0  0  0  0  0  0  0  0  0
   -2.4832   -0.0596   -0.0097 C   0  0  0  0  0  0  0  0  0  0  0  0
   -1.2028   -0.5999    0.0408 C   0  0  0  0  0  0  0  0  0  0  0  0
    1.7275   -0.2502   -2.0270 C   0  0  0  0  0  0  0  0  0  0  0  0
    1.3511    0.9363   -2.2403 O   0  0  0  0  0  0  0  0  0  0  0  0
    2.9375   -0.7434   -2.5771 N   0  0  0  0  0  0  0  0  0  0  0  0
    3.1472   -2.1349   -2.7389 C   0  0  0  0  0  0  0  0  0  0  0  0
    4.2354   -2.5815   -3.2343 O   0  0  0  0  0  0  0  0  0  0  0  0
    2.1227   -3.0329   -2.3395 N   0  0  0  0  0  0  0  0  0  0  0  0
    0.9000   -2.5361   -1.7826 C   0  0  0  0  0  0  0  0  0  0  0  0
   -0.1138   -3.2694   -1.8333 O   0  0  0  0  0  0  0  0  0  0  0  0
    3.9870    2.5406    0.8390 H   0  0  0  0  0  0  0  0  0  0  0  0
    5.7487    2.3112    0.5445 H   0  0  0  0  0  0  0  0  0  0  0  0
    5.1601    2.1470    2.2110 H   0  0  0  0  0  0  0  0  0  0  0  0
    4.3647    0.3559   -0.1128 H   0  0  0  0  0  0  0  0  0  0  0  0
    5.7311    0.0526    1.0256 H   0  0  0  0  0  0  0  0  0  0  0  0
    4.2991   -0.1577    2.9197 H   0  0  0  0  0  0  0  0  0  0  0  0
    3.7422   -1.2428    1.6070 H   0  0  0  0  0  0  0  0  0  0  0  0
    2.4977    1.4928    2.2221 H   0  0  0  0  0  0  0  0  0  0  0  0
    1.8454   -0.0532    2.7754 H   0  0  0  0  0  0  0  0  0  0  0  0
    2.3812    0.7685   -0.1601 H   0  0  0  0  0  0  0  0  0  0  0  0
    0.7515    0.7340    0.6777 H   0  0  0  0  0  0  0  0  0  0  0  0
    1.1005   -1.8056    0.9100 H   0  0  0  0  0  0  0  0  0  0  0  0
    2.6022   -1.6326   -0.0277 H   0  0  0  0  0  0  0  0  0  0  0  0
   -0.4834   -0.1011   -3.2229 H   0  0  0  0  0  0  0  0  0  0  0  0
   -2.7325    0.8262   -3.2144 H   0  0  0  0  0  0  0  0  0  0  0  0
   -5.9668   -0.9148   -0.2395 H   0  0  0  0  0  0  0  0  0  0  0  0
   -7.2285   -0.8672    1.8954 H   0  0  0  0  0  0  0  0  0  0  0  0
   -7.0045    1.1019    3.3507 H   0  0  0  0  0  0  0  0  0  0  0  0
   -5.5373    3.0021    2.6821 H   0  0  0  0  0  0  0  0  0  0  0  0
   -4.3178    2.9414    0.6052 H   0  0  0  0  0  0  0  0  0  0  0  0
   -3.0567   -0.0447    0.8970 H   0  0  0  0  0  0  0  0  0  0  0  0
   -0.8255   -0.9924    0.9769 H   0  0  0  0  0  0  0  0  0  0  0  0
    3.6952   -0.0533   -2.8707 H   0  0  0  0  0  0  0  0  0  0  0  0
    2.2580   -4.0793   -2.4519 H   0  0  0  0  0  0  0  0  0  0  0  0
  1  2  1  0
  2  3  1  0
  3  4  1  0
  4  5  1  0
  5  6  1  0
  6  7  1  0
  7  8  1  0
  8  9  2  0
  9 10  1  0
 10 11  2  0
 11 12  1  0
 12 13  1  0
 13 14  2  0
 14 15  1  0
 15 16  2  0
 16 17  1  0
 17 18  2  0
 11 19  1  0
 19 20  2  0
  7 21  1  0
 21 22  2  0
 21 23  1  0
 23 24  1  0
 24 25  2  0
 24 26  1  0
 26 27  1  0
 27 28  2  0
 27  7  1  0
 20  8  1  0
 18 13  1  0
  1 29  1  0
  1 30  1  0
  1 31  1  0
  2 32  1  0
  2 33  1  0
  3 34  1  0
  3 35  1  0
  4 36  1  0
  4 37  1  0
  5 38  1  0
  5 39  1  0
  6 40  1  0
  6 41  1  0
  9 42  1  0
 10 43  1  0
 14 44  1  0
 15 45  1  0
 16 46  1  0
 17 47  1  0
 18 48  1  0
 19 49  1  0
 20 50  1  0
 23 51  1  0
 26 52  1  0
M  END
$$$$
