
     RDKit          3D

 53 55  0  0  0  0  0  0  0  0999 V2000
   -3.6227   -0.7415   -2.9778 C   0  0  0  0  0  0  0  0  0  0  0  0
   -3.8407   -0.4928   -1.5010 C   0  0  0  0  0  0  0  0  0  0  0  0
   -4.4934   -1.7236   -0.9272 C   0  0  0  0  0  0  0  0  0  0  0  0
   -4.6709    0.7429   -1.3460 C   0  0  0  0  0  0  0  0  0  0  0  0
   -4.9149    1.1419    0.0633 C   0  0  0  0  0  0  0  0  0  0  0  0
   -3.8742    0.7234    1.0365 C   0  0  0  0  0  0  0  0  0  0  0  0
   -4.4090   -0.3268    2.0031 C   0  0  0  0  0  0  0  0  0  0  0  0
   -3.5812    1.9513    1.9109 C   0  0  0  0  0  0  0  0  0  0  0  0
   -2.5874    0.3529    0.4374 C   0  0  0  0  0  0  0  0  0  0  0  0
   -1.3738    0.5873    1.0921 C   0  0  0  0  0  0  0  0  0  0  0  0
   -0.1668    0.2386    0.5272 C   0  0  0  0  0  0  0  0  0  0  0  0
   -0.2517   -0.3485   -0.7115 C   0  0  0  0  0  0  0  0  0  0  0  0
   -1.3855   -0.6196   -1.4322 C   0  0  0  0  0  0  0  0  0  0  0  0
   -2.5519   -0.2423   -0.8019 C   0  0  0  0  0  0  0  0  0  0  0  0
    1.0184    0.5307    1.2981 C   0  0  0  0  0  0  0  0  0  0  0  0
    0.7514    1.0886    2.4283 O   0  0  0  0  0  0  0  0  0  0  0  0
    2.4434    0.3834    1.1833 C   0  0  0  0  0  0  0  0  0  0  0  0
    3.2877   -0.0873    0.3136 C   0  0  0  0  0  0  0  0  0  0  0  0
    4.7394   -0.1665    0.3445 C   0  0  0  0  0  0  0  0  0  0  0  0
    5.4203   -0.7192   -0.7186 C   0  0  0  0  0  0  0  0  0  0  0  0
    6.7774   -0.8153   -0.7357 C   0  0  0  0  0  0  0  0  0  0  0  0
    7.5353   -0.3586    0.3214 C   0  0  0  0  0  0  0  0  0  0  0  0
    6.8960    0.2007    1.4040 C   0  0  0  0  0  0  0  0  0  0  0  0
    5.5169    0.2764    1.3756 C   0  0  0  0  0  0  0  0  0  0  0  0
    8.9840   -0.4663    0.2924 C   0  0  0  0  0  0  0  0  0  0  0  0
    9.7447   -0.0105    1.3480 O   0  0  0  0  0  0  0  0  0  0  0  0
    9.5542   -0.9816   -0.7073 O   0  0  0  0  0  0  0  0  0  0  0  0
   -3.0538    0.0490   -3.4644 H   0  0  0  0  0  0  0  0  0  0  0  0
   -4.6310   -0.7565   -3.4505 H   0  0  0  0  0  0  0  0  0  0  0  0
   -3.2008   -1.7534   -3.1061 H   0  0  0  0  0  0  0  0  0  0  0  0
   -4.7579   -2.4742   -1.7279 H   0  0  0  0  0  0  0  0  0  0  0  0
   -5.4603   -1.4870   -0.4372 H   0  0  0  0  0  0  0  0  0  0  0  0
   -3.8039   -2.2929   -0.2597 H   0  0  0  0  0  0  0  0  0  0  0  0
   -5.6435    0.6275   -1.8926 H   0  0  0  0  0  0  0  0  0  0  0  0
   -4.1366    1.5566   -1.8985 H   0  0  0  0  0  0  0  0  0  0  0  0
   -5.8964    0.6802    0.3672 H   0  0  0  0  0  0  0  0  0  0  0  0
   -5.1347    2.2436    0.0771 H   0  0  0  0  0  0  0  0  0  0  0  0
   -4.3592   -0.0335    3.0509 H   0  0  0  0  0  0  0  0  0  0  0  0
   -5.4796   -0.5184    1.7582 H   0  0  0  0  0  0  0  0  0  0  0  0
   -3.7976   -1.2693    1.9102 H   0  0  0  0  0  0  0  0  0  0  0  0
   -3.2524    1.6414    2.9194 H   0  0  0  0  0  0  0  0  0  0  0  0
   -2.8952    2.6323    1.3915 H   0  0  0  0  0  0  0  0  0  0  0  0
   -4.5554    2.4601    2.0606 H   0  0  0  0  0  0  0  0  0  0  0  0
   -1.5004    1.0527    2.0478 H   0  0  0  0  0  0  0  0  0  0  0  0
    0.6555   -0.6422   -1.2023 H   0  0  0  0  0  0  0  0  0  0  0  0
   -1.3599   -1.0868   -2.4052 H   0  0  0  0  0  0  0  0  0  0  0  0
    3.0850    0.7361    2.0073 H   0  0  0  0  0  0  0  0  0  0  0  0
    2.8005   -0.4772   -0.5673 H   0  0  0  0  0  0  0  0  0  0  0  0
    4.8646   -1.0927   -1.5743 H   0  0  0  0  0  0  0  0  0  0  0  0
    7.2601   -1.2632   -1.6066 H   0  0  0  0  0  0  0  0  0  0  0  0
    7.4771    0.5583    2.2301 H   0  0  0  0  0  0  0  0  0  0  0  0
    5.0819    0.7187    2.2411 H   0  0  0  0  0  0  0  0  0  0  0  0
   10.7488    0.0730    1.3364 H   0  0  0  0  0  0  0  0  0  0  0  0
  1  2  1  0
  2  3  1  0
  2  4  1  0
  4  5  1  0
  5  6  1  0
  6  7  1  0
  6  8  1  0
  6  9  1  0
  9 10  2  0
 10 11  1  0
 11 12  2  0
 12 13  1  0
 13 14  2  0
 11 15  1  0
 15 16  2  0
 15 17  1  0
 17 18  2  0
 18 19  1  0
 19 20  2  0
 20 21  1  0
 21 22  2  0
 22 23  1  0
 23 24  2  0
 22 25  1  0
 25 26  1  0
 25 27  2  0
 14  2  1  0
 24 19  1  0
 14  9  1  0
  1 28  1  0
  1 29  1  0
  1 30  1  0
  3 31  1  0
  3 32  1  0
  3 33  1  0
  4 34  1  0
  4 35  1  0
  5 36  1  0
  5 37  1  0
  7 38  1  0
  7 39  1  0
  7 40  1  0
  8 41  1  0
  8 42  1  0
  8 43  1  0
 10 44  1  0
 12 45  1  0
 13 46  1  0
 17 47  1  0
 18 48  1  0
 20 49  1  0
 21 50  1  0
 23 51  1  0
 24 52  1  0
 26 53  1  0
M  END
$$$$
