
     RDKit          3D

 72 77  0  0  0  0  0  0  0  0999 V2000
    6.5809    2.2759   -1.4654 C   0  0  0  0  0  0  0  0  0  0  0  0
    7.1488    1.6967   -0.2295 C   0  0  0  0  0  0  0  0  0  0  0  0
    8.4873    1.9616    0.0581 C   0  0  0  0  0  0  0  0  0  0  0  0
    9.0372    1.4294    1.1980 C   0  0  0  0  0  0  0  0  0  0  0  0
   10.4267    1.6527    1.5783 C   0  0  0  0  0  0  0  0  0  0  0  0
   11.1365    2.3605    0.8273 O   0  0  0  0  0  0  0  0  0  0  0  0
   10.9993    1.1253    2.7209 O   0  0  0  0  0  0  0  0  0  0  0  0
    8.2777    0.6530    2.0327 C   0  0  0  0  0  0  0  0  0  0  0  0
    6.9771    0.4055    1.7375 C   0  0  0  0  0  0  0  0  0  0  0  0
    6.3864    0.9192    0.6057 C   0  0  0  0  0  0  0  0  0  0  0  0
    4.9708    0.6295    0.3262 C   0  0  0  0  0  0  0  0  0  0  0  0
    4.0552    1.5823   -0.0493 C   0  0  0  0  0  0  0  0  0  0  0  0
    2.7329    1.2630   -0.3044 C   0  0  0  0  0  0  0  0  0  0  0  0
    2.2734   -0.0141   -0.1953 C   0  0  0  0  0  0  0  0  0  0  0  0
    0.9082   -0.3502   -0.4633 N   0  0  0  0  0  0  0  0  0  0  0  0
    0.3098   -1.6266   -0.3541 C   0  0  0  0  0  0  0  0  0  0  0  0
    0.8100   -2.7303   -0.0075 O   0  0  0  0  0  0  0  0  0  0  0  0
   -1.0912   -1.5467   -0.7176 N   0  0  0  0  0  0  0  0  0  0  0  0
   -1.9148   -2.6233   -1.1274 C   0  0  0  0  0  0  0  0  0  0  0  0
   -2.0677   -3.0169   -2.4341 C   0  0  0  0  0  0  0  0  0  0  0  0
   -2.8744   -4.0681   -2.8112 C   0  0  0  0  0  0  0  0  0  0  0  0
   -3.5401   -4.7311   -1.8233 N   0  0  0  0  0  0  0  0  0  0  0  0
   -3.3953   -4.3520   -0.5452 C   0  0  0  0  0  0  0  0  0  0  0  0
   -2.5935   -3.3111   -0.1954 N   0  0  0  0  0  0  0  0  0  0  0  0
   -1.4343   -0.1431   -0.5641 C   0  0  0  0  0  0  0  0  0  0  0  0
   -2.5138    0.2737   -1.5361 C   0  0  0  0  0  0  0  0  0  0  0  0
   -3.8957    0.0075   -0.9923 C   0  0  0  0  0  0  0  0  0  0  0  0
   -4.1186    0.7557    0.2045 N   0  0  0  0  0  0  0  0  0  0  0  0
   -4.9021    0.0817    1.1899 C   0  0  0  0  0  0  0  0  0  0  0  0
   -6.2625   -0.2706    0.7166 C   0  0  0  0  0  0  0  0  0  0  0  0
   -6.5820   -1.5279    0.3708 N   0  0  0  0  0  0  0  0  0  0  0  0
   -7.8143   -1.8711   -0.0627 C   0  0  0  0  0  0  0  0  0  0  0  0
   -8.8123   -0.9230   -0.1689 C   0  0  0  0  0  0  0  0  0  0  0  0
   -8.5148    0.3700    0.1775 C   0  0  0  0  0  0  0  0  0  0  0  0
   -7.2417    0.6920    0.6189 C   0  0  0  0  0  0  0  0  0  0  0  0
   -6.9829    2.1189    0.9811 C   0  0  0  0  0  0  0  0  0  0  0  0
   -2.9045    1.2472    0.8169 C   0  0  0  0  0  0  0  0  0  0  0  0
   -1.8044    0.2167    0.8348 C   0  0  0  0  0  0  0  0  0  0  0  0
   -0.1384    0.5055   -0.8960 C   0  0  0  0  0  0  0  0  0  0  0  0
   -0.0011    1.6121   -1.4586 O   0  0  0  0  0  0  0  0  0  0  0  0
    3.1702   -0.9864    0.1793 C   0  0  0  0  0  0  0  0  0  0  0  0
    4.5023   -0.6596    0.4353 C   0  0  0  0  0  0  0  0  0  0  0  0
    6.3400    3.3559   -1.3210 H   0  0  0  0  0  0  0  0  0  0  0  0
    5.7407    1.7123   -1.8903 H   0  0  0  0  0  0  0  0  0  0  0  0
    7.4077    2.2050   -2.2352 H   0  0  0  0  0  0  0  0  0  0  0  0
    9.0604    2.5657   -0.6011 H   0  0  0  0  0  0  0  0  0  0  0  0
   12.0219    1.0390    2.8322 H   0  0  0  0  0  0  0  0  0  0  0  0
    8.7105    0.2370    2.9247 H   0  0  0  0  0  0  0  0  0  0  0  0
    6.3816   -0.2036    2.3929 H   0  0  0  0  0  0  0  0  0  0  0  0
    4.3923    2.6256   -0.1436 H   0  0  0  0  0  0  0  0  0  0  0  0
    2.0651    2.0804   -0.5969 H   0  0  0  0  0  0  0  0  0  0  0  0
   -1.5376   -2.4870   -3.2069 H   0  0  0  0  0  0  0  0  0  0  0  0
   -3.0128   -4.3965   -3.8169 H   0  0  0  0  0  0  0  0  0  0  0  0
   -3.9521   -4.9205    0.1949 H   0  0  0  0  0  0  0  0  0  0  0  0
   -2.4348   -0.2818   -2.4943 H   0  0  0  0  0  0  0  0  0  0  0  0
   -2.4167    1.3652   -1.7091 H   0  0  0  0  0  0  0  0  0  0  0  0
   -4.6101    0.3951   -1.7740 H   0  0  0  0  0  0  0  0  0  0  0  0
   -4.1106   -1.0676   -0.9043 H   0  0  0  0  0  0  0  0  0  0  0  0
   -4.3612   -0.8483    1.4765 H   0  0  0  0  0  0  0  0  0  0  0  0
   -4.9283    0.7171    2.1057 H   0  0  0  0  0  0  0  0  0  0  0  0
   -8.0650   -2.8985   -0.3420 H   0  0  0  0  0  0  0  0  0  0  0  0
   -9.8181   -1.1849   -0.5190 H   0  0  0  0  0  0  0  0  0  0  0  0
   -9.3042    1.1048    0.0906 H   0  0  0  0  0  0  0  0  0  0  0  0
   -6.4139    2.6463    0.2002 H   0  0  0  0  0  0  0  0  0  0  0  0
   -7.9170    2.6636    1.1689 H   0  0  0  0  0  0  0  0  0  0  0  0
   -6.3839    2.1697    1.9131 H   0  0  0  0  0  0  0  0  0  0  0  0
   -2.5846    2.2116    0.3689 H   0  0  0  0  0  0  0  0  0  0  0  0
   -3.1440    1.4911    1.8909 H   0  0  0  0  0  0  0  0  0  0  0  0
   -2.1355   -0.6264    1.4516 H   0  0  0  0  0  0  0  0  0  0  0  0
   -0.9399    0.6997    1.3669 H   0  0  0  0  0  0  0  0  0  0  0  0
    2.9327   -2.0219    0.2992 H   0  0  0  0  0  0  0  0  0  0  0  0
    5.2273   -1.4319    0.7356 H   0  0  0  0  0  0  0  0  0  0  0  0
  1  2  1  0
  2  3  2  0
  3  4  1  0
  4  5  1  0
  5  6  2  0
  5  7  1  0
  4  8  2  0
  8  9  1  0
  9 10  2  0
 10 11  1  0
 11 12  2  0
 12 13  1  0
 13 14  2  0
 14 15  1  0
 15 16  1  0
 16 17  2  0
 16 18  1  0
 18 19  1  0
 19 20  2  0
 20 21  1  0
 21 22  2  0
 22 23  1  0
 23 24  2  0
 18 25  1  0
 25 26  1  0
 26 27  1  0
 27 28  1  0
 28 29  1  0
 29 30  1  0
 30 31  2  0
 31 32  1  0
 32 33  2  0
 33 34  1  0
 34 35  2  0
 35 36  1  0
 28 37  1  0
 37 38  1  0
 25 39  1  0
 39 40  2  0
 14 41  1  0
 41 42  2  0
 10  2  1  0
 42 11  1  0
 39 15  1  0
 24 19  1  0
 38 25  1  0
 35 30  1  0
  1 43  1  0
  1 44  1  0
  1 45  1  0
  3 46  1  0
  7 47  1  0
  8 48  1  0
  9 49  1  0
 12 50  1  0
 13 51  1  0
 20 52  1  0
 21 53  1  0
 23 54  1  0
 26 55  1  0
 26 56  1  0
 27 57  1  0
 27 58  1  0
 29 59  1  0
 29 60  1  0
 32 61  1  0
 33 62  1  0
 34 63  1  0
 36 64  1  0
 36 65  1  0
 36 66  1  0
 37 67  1  0
 37 68  1  0
 38 69  1  0
 38 70  1  0
 41 71  1  0
 42 72  1  0
M  END
$$$$
