
     RDKit          3D

 37 39  0  0  0  0  0  0  0  0999 V2000
   -3.5526    1.9265    0.5879 C   0  0  0  0  0  0  0  0  0  0  0  0
   -3.8674    0.5199    0.2352 C   0  0  0  0  0  0  0  0  0  0  0  0
   -4.8559    0.4507   -0.9349 C   0  0  0  0  0  0  0  0  0  0  0  0
   -4.5471   -0.0460    1.3244 O   0  0  0  0  0  0  0  0  0  0  0  0
   -2.6911   -0.2845   -0.1496 C   0  0  0  0  0  0  0  0  0  0  0  0
   -2.8764   -1.6080   -0.4966 C   0  0  0  0  0  0  0  0  0  0  0  0
   -1.8279   -2.3714   -0.8526 N   0  0  0  0  0  0  0  0  0  0  0  0
   -0.5598   -1.9278   -0.8990 C   0  0  0  0  0  0  0  0  0  0  0  0
   -0.3421   -0.6149   -0.5594 C   0  0  0  0  0  0  0  0  0  0  0  0
    0.9503   -0.0444   -0.5735 N   0  0  0  0  0  0  0  0  0  0  0  0
    1.3348    1.0470   -1.2094 N   0  0  0  0  0  0  0  0  0  0  0  0
    2.6222    1.3258   -1.0249 C   0  0  0  0  0  0  0  0  0  0  0  0
    3.1095    0.3256   -0.1973 C   0  0  0  0  0  0  0  0  0  0  0  0
    4.3769    0.0942    0.3310 C   0  0  0  0  0  0  0  0  0  0  0  0
    5.4368    1.0558   -0.0190 C   0  0  0  0  0  0  0  0  0  0  0  0
    5.0880    2.3131    0.4137 F   0  0  0  0  0  0  0  0  0  0  0  0
    5.4852    1.1251   -1.4159 F   0  0  0  0  0  0  0  0  0  0  0  0
    6.6637    0.7189    0.4517 F   0  0  0  0  0  0  0  0  0  0  0  0
    4.5483   -1.0043    1.1340 C   0  0  0  0  0  0  0  0  0  0  0  0
    3.4666   -1.8379    1.3898 C   0  0  0  0  0  0  0  0  0  0  0  0
    2.2310   -1.6156    0.8771 C   0  0  0  0  0  0  0  0  0  0  0  0
    2.0426   -0.5075    0.0625 C   0  0  0  0  0  0  0  0  0  0  0  0
   -1.4033    0.1826   -0.1921 C   0  0  0  0  0  0  0  0  0  0  0  0
   -2.8972    2.4486   -0.1268 H   0  0  0  0  0  0  0  0  0  0  0  0
   -3.0804    1.9741    1.5859 H   0  0  0  0  0  0  0  0  0  0  0  0
   -4.5076    2.5019    0.6186 H   0  0  0  0  0  0  0  0  0  0  0  0
   -5.2697   -0.5782   -0.9204 H   0  0  0  0  0  0  0  0  0  0  0  0
   -5.6519    1.2125   -0.7765 H   0  0  0  0  0  0  0  0  0  0  0  0
   -4.2813    0.6852   -1.8446 H   0  0  0  0  0  0  0  0  0  0  0  0
   -3.9586   -0.0996    2.1128 H   0  0  0  0  0  0  0  0  0  0  0  0
   -3.8975   -2.0210   -0.4749 H   0  0  0  0  0  0  0  0  0  0  0  0
    0.2663   -2.5961   -1.1983 H   0  0  0  0  0  0  0  0  0  0  0  0
    3.1814    2.1479   -1.4253 H   0  0  0  0  0  0  0  0  0  0  0  0
    5.5290   -1.1886    1.5463 H   0  0  0  0  0  0  0  0  0  0  0  0
    3.6217   -2.7053    2.0296 H   0  0  0  0  0  0  0  0  0  0  0  0
    1.3627   -2.2370    1.0497 H   0  0  0  0  0  0  0  0  0  0  0  0
   -1.2491    1.2329    0.0823 H   0  0  0  0  0  0  0  0  0  0  0  0
  1  2  1  0
  2  3  1  0
  2  4  1  0
  2  5  1  0
  5  6  2  0
  6  7  1  0
  7  8  2  0
  8  9  1  0
  9 10  1  0
 10 11  1  0
 11 12  2  0
 12 13  1  0
 13 14  2  0
 14 15  1  0
 15 16  1  0
 15 17  1  0
 15 18  1  0
 14 19  1  0
 19 20  2  0
 20 21  1  0
 21 22  2  0
  9 23  2  0
 23  5  1  0
 22 10  1  0
 22 13  1  0
  1 24  1  0
  1 25  1  0
  1 26  1  0
  3 27  1  0
  3 28  1  0
  3 29  1  0
  4 30  1  0
  6 31  1  0
  8 32  1  0
 12 33  1  0
 19 34  1  0
 20 35  1  0
 21 36  1  0
 23 37  1  0
M  END
$$$$
