
     RDKit          3D

 72 76  0  0  0  0  0  0  0  0999 V2000
    6.4832    1.0862   -0.1472 O   0  0  0  0  0  0  0  0  0  0  0  0
    7.0096    0.4115    0.7682 C   0  0  0  0  0  0  0  0  0  0  0  0
    6.1778   -0.1700    1.7519 N   0  0  0  0  0  0  0  0  0  0  0  0
    4.7465    0.0292    1.6689 C   0  0  0  0  0  0  0  0  0  0  0  0
    4.2291   -0.5316    0.4097 C   0  0  0  0  0  0  0  0  0  0  0  0
    5.0654   -1.0882   -0.3734 O   0  0  0  0  0  0  0  0  0  0  0  0
    2.8472   -0.4635    0.0623 N   0  0  0  0  0  0  0  0  0  0  0  0
    1.7873    0.1320    0.8451 C   0  0  0  0  0  0  0  0  0  0  0  0
    1.0206    0.8381   -0.2977 C   0  0  0  0  0  0  0  0  0  0  0  0
    0.8964   -0.2911   -1.2780 C   0  0  2  0  0  0  0  0  0  0  0  0
   -0.1351   -1.1767   -0.9209 N   0  0  0  0  0  0  0  0  0  0  0  0
   -1.4505   -0.9897   -1.3780 C   0  0  1  0  0  0  0  0  0  0  0  0
   -2.3051   -2.0974   -0.7363 C   0  0  0  0  0  0  0  0  0  0  0  0
   -3.6282   -1.5642   -0.2573 C   0  0  0  0  0  0  0  0  0  0  0  0
   -4.2698   -0.6839   -1.3193 C   0  0  1  0  0  0  0  0  0  0  0  0
   -4.4849   -1.4872   -2.4637 O   0  0  0  0  0  0  0  0  0  0  0  0
   -5.6140   -0.2941   -0.8115 C   0  0  0  0  0  0  0  0  0  0  0  0
   -5.8160    0.8267   -0.0411 C   0  0  0  0  0  0  0  0  0  0  0  0
   -7.0792    1.1486    0.4039 C   0  0  0  0  0  0  0  0  0  0  0  0
   -8.1753    0.3680    0.0972 C   0  0  0  0  0  0  0  0  0  0  0  0
   -9.5103    0.7115    0.5674 C   0  0  0  0  0  0  0  0  0  0  0  0
  -10.5398   -0.0830    0.2271 N   0  0  0  0  0  0  0  0  0  0  0  0
  -11.7963    0.1802    0.6272 C   0  0  0  0  0  0  0  0  0  0  0  0
  -12.0461    1.2738    1.3956 C   0  0  0  0  0  0  0  0  0  0  0  0
  -11.0062    2.0997    1.7551 C   0  0  0  0  0  0  0  0  0  0  0  0
   -9.7611    1.7843    1.3224 N   0  0  0  0  0  0  0  0  0  0  0  0
   -7.9238   -0.7448   -0.6768 C   0  0  0  0  0  0  0  0  0  0  0  0
   -6.6844   -1.0523   -1.1084 N   0  0  0  0  0  0  0  0  0  0  0  0
   -3.4101    0.4605   -1.7249 C   0  0  0  0  0  0  0  0  0  0  0  0
   -2.0116    0.3608   -1.0713 C   0  0  0  0  0  0  0  0  0  0  0  0
    2.2606   -0.9823   -1.1539 C   0  0  0  0  0  0  0  0  0  0  0  0
    8.4573    0.2483    0.7901 C   0  0  0  0  0  0  0  0  0  0  0  0
    9.1134   -0.4842    1.7594 C   0  0  0  0  0  0  0  0  0  0  0  0
   10.4986   -0.6094    1.7412 C   0  0  0  0  0  0  0  0  0  0  0  0
   11.2517   -0.0010    0.7472 C   0  0  0  0  0  0  0  0  0  0  0  0
   10.6229    0.7355   -0.2325 C   0  0  0  0  0  0  0  0  0  0  0  0
   11.3832    1.4225   -1.3375 C   0  0  0  0  0  0  0  0  0  0  0  0
   11.6557    2.7143   -0.9085 F   0  0  0  0  0  0  0  0  0  0  0  0
   12.5374    0.7482   -1.5965 F   0  0  0  0  0  0  0  0  0  0  0  0
   10.5323    1.5270   -2.4066 F   0  0  0  0  0  0  0  0  0  0  0  0
    9.2608    0.8374   -0.1828 C   0  0  0  0  0  0  0  0  0  0  0  0
    6.5565   -0.7464    2.5488 H   0  0  0  0  0  0  0  0  0  0  0  0
    4.2310   -0.4813    2.5359 H   0  0  0  0  0  0  0  0  0  0  0  0
    4.4895    1.1012    1.8012 H   0  0  0  0  0  0  0  0  0  0  0  0
    1.1059   -0.6522    1.2011 H   0  0  0  0  0  0  0  0  0  0  0  0
    2.1149    0.8504    1.5887 H   0  0  0  0  0  0  0  0  0  0  0  0
    1.7496    1.5837   -0.7016 H   0  0  0  0  0  0  0  0  0  0  0  0
    0.1104    1.2826    0.0759 H   0  0  0  0  0  0  0  0  0  0  0  0
    0.7873    0.1043   -2.3329 H   0  0  0  0  0  0  0  0  0  0  0  0
    0.1718   -2.1736   -0.9513 H   0  0  0  0  0  0  0  0  0  0  0  0
   -1.4900   -1.1117   -2.5003 H   0  0  0  0  0  0  0  0  0  0  0  0
   -1.7862   -2.5227    0.1581 H   0  0  0  0  0  0  0  0  0  0  0  0
   -2.4497   -2.9015   -1.4637 H   0  0  0  0  0  0  0  0  0  0  0  0
   -4.3143   -2.4411   -0.1337 H   0  0  0  0  0  0  0  0  0  0  0  0
   -3.5271   -0.9808    0.6613 H   0  0  0  0  0  0  0  0  0  0  0  0
   -5.0402   -2.2777   -2.2341 H   0  0  0  0  0  0  0  0  0  0  0  0
   -4.9972    1.4713    0.2290 H   0  0  0  0  0  0  0  0  0  0  0  0
   -7.2591    2.0377    1.0187 H   0  0  0  0  0  0  0  0  0  0  0  0
  -12.6155   -0.4644    0.3471 H   0  0  0  0  0  0  0  0  0  0  0  0
  -13.0478    1.5351    1.7485 H   0  0  0  0  0  0  0  0  0  0  0  0
  -11.2128    2.9638    2.3655 H   0  0  0  0  0  0  0  0  0  0  0  0
   -8.7609   -1.3830   -0.9385 H   0  0  0  0  0  0  0  0  0  0  0  0
   -3.2436    0.4976   -2.8197 H   0  0  0  0  0  0  0  0  0  0  0  0
   -3.8632    1.4382   -1.4600 H   0  0  0  0  0  0  0  0  0  0  0  0
   -1.3994    1.1185   -1.6337 H   0  0  0  0  0  0  0  0  0  0  0  0
   -2.1108    0.5607    0.0027 H   0  0  0  0  0  0  0  0  0  0  0  0
    2.1583   -2.0828   -1.1532 H   0  0  0  0  0  0  0  0  0  0  0  0
    2.8796   -0.6169   -2.0011 H   0  0  0  0  0  0  0  0  0  0  0  0
    8.5509   -0.9812    2.5636 H   0  0  0  0  0  0  0  0  0  0  0  0
   10.9851   -1.1902    2.5181 H   0  0  0  0  0  0  0  0  0  0  0  0
   12.3292   -0.0994    0.7384 H   0  0  0  0  0  0  0  0  0  0  0  0
    8.7086    1.4124   -0.9391 H   0  0  0  0  0  0  0  0  0  0  0  0
  1  2  2  0
  2  3  1  0
  3  4  1  0
  4  5  1  0
  5  6  2  0
  5  7  1  0
  7  8  1  0
  8  9  1  0
  9 10  1  0
 10 11  1  0
 11 12  1  0
 12 13  1  0
 13 14  1  0
 14 15  1  0
 15 16  1  6
 15 17  1  0
 17 18  2  0
 18 19  1  0
 19 20  2  0
 20 21  1  0
 21 22  2  0
 22 23  1  0
 23 24  2  0
 24 25  1  0
 25 26  2  0
 20 27  1  0
 27 28  2  0
 15 29  1  0
 29 30  1  0
 10 31  1  0
  2 32  1  0
 32 33  2  0
 33 34  1  0
 34 35  2  0
 35 36  1  0
 36 37  1  0
 37 38  1  0
 37 39  1  0
 37 40  1  0
 36 41  2  0
 31  7  1  0
 41 32  1  0
 30 12  1  0
 28 17  1  0
 26 21  1  0
  3 42  1  0
  4 43  1  0
  4 44  1  0
  8 45  1  0
  8 46  1  0
  9 47  1  0
  9 48  1  0
 10 49  1  6
 11 50  1  0
 12 51  1  6
 13 52  1  0
 13 53  1  0
 14 54  1  0
 14 55  1  0
 16 56  1  0
 18 57  1  0
 19 58  1  0
 23 59  1  0
 24 60  1  0
 25 61  1  0
 27 62  1  0
 29 63  1  0
 29 64  1  0
 30 65  1  0
 30 66  1  0
 31 67  1  0
 31 68  1  0
 33 69  1  0
 34 70  1  0
 35 71  1  0
 41 72  1  0
M  END
$$$$
