
     RDKit          3D

 57 59  0  0  0  0  0  0  0  0999 V2000
   -6.7788    0.2139   -1.6331 C   0  0  0  0  0  0  0  0  0  0  0  0
   -6.0439    0.2324   -0.3040 C   0  0  0  0  0  0  0  0  0  0  0  0
   -6.8089   -0.6977    0.6212 C   0  0  0  0  0  0  0  0  0  0  0  0
   -6.1371    1.6146    0.2670 C   0  0  0  0  0  0  0  0  0  0  0  0
   -4.7057   -0.2078   -0.5404 N   0  0  0  0  0  0  0  0  0  0  0  0
   -3.8978   -0.2329    0.6631 C   0  0  0  0  0  0  0  0  0  0  0  0
   -2.4949   -0.6991    0.3908 C   0  0  0  0  0  0  0  0  0  0  0  0
   -2.5282   -2.0022   -0.1432 O   0  0  0  0  0  0  0  0  0  0  0  0
   -1.7991    0.2181   -0.5777 C   0  0  0  0  0  0  0  0  0  0  0  0
   -0.6950    0.9796    0.0899 C   0  0  0  0  0  0  0  0  0  0  0  0
    0.2609    0.0395    0.6378 N   0  0  0  0  0  0  0  0  0  0  0  0
    1.6535    0.2276    0.4101 C   0  0  0  0  0  0  0  0  0  0  0  0
    2.5863   -0.6085    0.8897 N   0  0  0  0  0  0  0  0  0  0  0  0
    3.9042   -0.4591    0.6928 C   0  0  0  0  0  0  0  0  0  0  0  0
    4.8195   -1.3687    1.2220 O   0  0  0  0  0  0  0  0  0  0  0  0
    6.1638   -1.1958    1.0072 C   0  0  0  0  0  0  0  0  0  0  0  0
    6.7601   -1.7622   -0.0920 C   0  0  0  0  0  0  0  0  0  0  0  0
    8.1210   -1.6122   -0.3484 C   0  0  0  0  0  0  0  0  0  0  0  0
    8.8774   -0.8707    0.5365 C   0  0  0  0  0  0  0  0  0  0  0  0
    8.3056   -0.2934    1.6439 C   0  0  0  0  0  0  0  0  0  0  0  0
    9.0779    0.4199    2.4791 F   0  0  0  0  0  0  0  0  0  0  0  0
    6.9417   -0.4624    1.8718 C   0  0  0  0  0  0  0  0  0  0  0  0
    4.3155    0.6378   -0.0590 C   0  0  0  0  0  0  0  0  0  0  0  0
    3.3801    1.5067   -0.5600 C   0  0  0  0  0  0  0  0  0  0  0  0
    3.8505    2.6666   -1.3576 C   0  0  0  0  0  0  0  0  0  0  0  0
    3.5604    2.4143   -2.6917 F   0  0  0  0  0  0  0  0  0  0  0  0
    5.1937    2.8555   -1.1925 F   0  0  0  0  0  0  0  0  0  0  0  0
    3.1791    3.8270   -0.9901 F   0  0  0  0  0  0  0  0  0  0  0  0
    2.0887    1.2729   -0.3096 N   0  0  0  0  0  0  0  0  0  0  0  0
   -0.2548   -1.0724    1.4083 C   0  0  0  0  0  0  0  0  0  0  0  0
   -1.7213   -0.7807    1.6747 C   0  0  0  0  0  0  0  0  0  0  0  0
   -7.7631   -0.2900   -1.5650 H   0  0  0  0  0  0  0  0  0  0  0  0
   -6.1877   -0.3384   -2.4113 H   0  0  0  0  0  0  0  0  0  0  0  0
   -6.8675    1.2493   -2.0149 H   0  0  0  0  0  0  0  0  0  0  0  0
   -6.7779   -1.7432    0.2777 H   0  0  0  0  0  0  0  0  0  0  0  0
   -7.8638   -0.3730    0.6294 H   0  0  0  0  0  0  0  0  0  0  0  0
   -6.4257   -0.6339    1.6498 H   0  0  0  0  0  0  0  0  0  0  0  0
   -6.0909    1.6257    1.3711 H   0  0  0  0  0  0  0  0  0  0  0  0
   -5.4366    2.3358   -0.2009 H   0  0  0  0  0  0  0  0  0  0  0  0
   -7.1689    1.9956    0.0110 H   0  0  0  0  0  0  0  0  0  0  0  0
   -4.7493   -1.1353   -1.0144 H   0  0  0  0  0  0  0  0  0  0  0  0
   -3.8597    0.8107    1.0380 H   0  0  0  0  0  0  0  0  0  0  0  0
   -4.3200   -0.8612    1.4541 H   0  0  0  0  0  0  0  0  0  0  0  0
   -3.3351   -2.4329    0.2493 H   0  0  0  0  0  0  0  0  0  0  0  0
   -1.3612   -0.3809   -1.4038 H   0  0  0  0  0  0  0  0  0  0  0  0
   -2.5285    0.9043   -1.0562 H   0  0  0  0  0  0  0  0  0  0  0  0
   -1.0543    1.6364    0.8984 H   0  0  0  0  0  0  0  0  0  0  0  0
   -0.2376    1.6377   -0.6774 H   0  0  0  0  0  0  0  0  0  0  0  0
    6.2060   -2.3507   -0.8110 H   0  0  0  0  0  0  0  0  0  0  0  0
    8.5962   -2.0526   -1.2073 H   0  0  0  0  0  0  0  0  0  0  0  0
    9.9448   -0.7353    0.3630 H   0  0  0  0  0  0  0  0  0  0  0  0
    6.4684   -0.0166    2.7385 H   0  0  0  0  0  0  0  0  0  0  0  0
    5.3832    0.7643   -0.2221 H   0  0  0  0  0  0  0  0  0  0  0  0
    0.2934   -1.0795    2.3672 H   0  0  0  0  0  0  0  0  0  0  0  0
   -0.1125   -2.0400    0.9004 H   0  0  0  0  0  0  0  0  0  0  0  0
   -1.7696    0.2122    2.1684 H   0  0  0  0  0  0  0  0  0  0  0  0
   -2.1561   -1.5090    2.3900 H   0  0  0  0  0  0  0  0  0  0  0  0
  1  2  1  0
  2  3  1  0
  2  4  1  0
  2  5  1  0
  5  6  1  0
  6  7  1  0
  7  8  1  0
  7  9  1  0
  9 10  1  0
 10 11  1  0
 11 12  1  0
 12 13  2  0
 13 14  1  0
 14 15  1  0
 15 16  1  0
 16 17  2  0
 17 18  1  0
 18 19  2  0
 19 20  1  0
 20 21  1  0
 20 22  2  0
 14 23  2  0
 23 24  1  0
 24 25  1  0
 25 26  1  0
 25 27  1  0
 25 28  1  0
 24 29  2  0
 11 30  1  0
 30 31  1  0
 31  7  1  0
 29 12  1  0
 22 16  1  0
  1 32  1  0
  1 33  1  0
  1 34  1  0
  3 35  1  0
  3 36  1  0
  3 37  1  0
  4 38  1  0
  4 39  1  0
  4 40  1  0
  5 41  1  0
  6 42  1  0
  6 43  1  0
  8 44  1  0
  9 45  1  0
  9 46  1  0
 10 47  1  0
 10 48  1  0
 17 49  1  0
 18 50  1  0
 19 51  1  0
 22 52  1  0
 23 53  1  0
 30 54  1  0
 30 55  1  0
 31 56  1  0
 31 57  1  0
M  END
$$$$
