
     RDKit          3D

 56 59  0  0  0  0  0  0  0  0999 V2000
   -3.8134   -1.6479    1.0799 C   0  0  0  0  0  0  0  0  0  0  0  0
   -4.5392   -0.7934    0.0899 C   0  0  0  0  0  0  0  0  0  0  0  0
   -4.9257   -1.1883   -1.1306 N   0  0  0  0  0  0  0  0  0  0  0  0
   -5.5489   -0.1763   -1.7537 N   0  0  0  0  0  0  0  0  0  0  0  0
   -6.1097   -0.2209   -3.0939 C   0  0  0  0  0  0  0  0  0  0  0  0
   -5.5808    0.8992   -0.9507 C   0  0  0  0  0  0  0  0  0  0  0  0
   -6.1900    2.2151   -1.2921 C   0  0  0  0  0  0  0  0  0  0  0  0
   -4.9461    0.5198    0.2151 C   0  0  0  0  0  0  0  0  0  0  0  0
   -4.7374    1.3258    1.3577 N   0  0  0  0  0  0  0  0  0  0  0  0
   -3.3438    2.3061    1.5862 S   0  0  0  0  0  6  0  0  0  0  0  0
   -3.2019    3.3302    0.4870 O   0  0  0  0  0  0  0  0  0  0  0  0
   -3.4742    3.0610    2.8680 O   0  0  0  0  0  0  0  0  0  0  0  0
   -1.8751    1.3908    1.6418 C   0  0  0  0  0  0  0  0  0  0  0  0
   -1.3267    0.8710    2.7956 C   0  0  0  0  0  0  0  0  0  0  0  0
   -2.1582    1.1442    4.3212 Cl  0  0  0  0  0  0  0  0  0  0  0  0
   -0.1496    0.1490    2.7681 C   0  0  0  0  0  0  0  0  0  0  0  0
    0.5164   -0.0748    1.5775 C   0  0  0  0  0  0  0  0  0  0  0  0
    1.7597   -0.8340    1.5190 C   0  0  0  0  0  0  0  0  0  0  0  0
    1.9965   -1.8580    2.3997 C   0  0  0  0  0  0  0  0  0  0  0  0
    3.1830   -2.5695    2.3298 C   0  0  0  0  0  0  0  0  0  0  0  0
    4.1015   -2.2570    1.3998 N   0  0  0  0  0  0  0  0  0  0  0  0
    3.9159   -1.2470    0.4992 C   0  0  0  0  0  0  0  0  0  0  0  0
    4.9425   -0.9971   -0.4387 N   0  0  0  0  0  0  0  0  0  0  0  0
    6.1834   -1.7832   -0.4418 C   0  0  0  0  0  0  0  0  0  0  0  0
    7.3472   -0.8209   -0.4118 C   0  0  0  0  0  0  0  0  0  0  0  0
    6.8682    0.5279   -0.1127 N   0  0  0  0  0  0  0  0  0  0  0  0
    5.9960    0.9936   -1.1882 C   0  0  0  0  0  0  0  0  0  0  0  0
    4.8592    0.0270   -1.4476 C   0  0  0  0  0  0  0  0  0  0  0  0
    2.7430   -0.5520    0.5768 C   0  0  0  0  0  0  0  0  0  0  0  0
   -0.0213    0.4399    0.4135 C   0  0  0  0  0  0  0  0  0  0  0  0
   -1.2022    1.1611    0.4611 C   0  0  0  0  0  0  0  0  0  0  0  0
   -1.8218    1.7824   -1.0596 Cl  0  0  0  0  0  0  0  0  0  0  0  0
   -4.4868   -2.5081    1.3664 H   0  0  0  0  0  0  0  0  0  0  0  0
   -2.8756   -2.0505    0.6726 H   0  0  0  0  0  0  0  0  0  0  0  0
   -3.6351   -1.0958    2.0257 H   0  0  0  0  0  0  0  0  0  0  0  0
   -5.4352    0.2228   -3.8443 H   0  0  0  0  0  0  0  0  0  0  0  0
   -7.0750    0.3551   -3.1424 H   0  0  0  0  0  0  0  0  0  0  0  0
   -6.3801   -1.2718   -3.3825 H   0  0  0  0  0  0  0  0  0  0  0  0
   -7.2340    2.0473   -1.6901 H   0  0  0  0  0  0  0  0  0  0  0  0
   -5.6240    2.6488   -2.1205 H   0  0  0  0  0  0  0  0  0  0  0  0
   -6.3087    2.8585   -0.4160 H   0  0  0  0  0  0  0  0  0  0  0  0
   -5.4981    1.2994    2.0880 H   0  0  0  0  0  0  0  0  0  0  0  0
    0.2536   -0.2423    3.6749 H   0  0  0  0  0  0  0  0  0  0  0  0
    1.2291   -2.0815    3.1385 H   0  0  0  0  0  0  0  0  0  0  0  0
    3.3820   -3.3734    3.0124 H   0  0  0  0  0  0  0  0  0  0  0  0
    6.2055   -2.5421    0.3375 H   0  0  0  0  0  0  0  0  0  0  0  0
    6.1974   -2.2880   -1.4402 H   0  0  0  0  0  0  0  0  0  0  0  0
    8.0711   -1.0929    0.3861 H   0  0  0  0  0  0  0  0  0  0  0  0
    7.9096   -0.7895   -1.3633 H   0  0  0  0  0  0  0  0  0  0  0  0
    7.6984    1.1726   -0.1333 H   0  0  0  0  0  0  0  0  0  0  0  0
    6.5617    1.1018   -2.1324 H   0  0  0  0  0  0  0  0  0  0  0  0
    5.6417    1.9921   -0.9085 H   0  0  0  0  0  0  0  0  0  0  0  0
    5.0161   -0.5096   -2.4297 H   0  0  0  0  0  0  0  0  0  0  0  0
    3.8899    0.5186   -1.5493 H   0  0  0  0  0  0  0  0  0  0  0  0
    2.5447    0.2428   -0.0955 H   0  0  0  0  0  0  0  0  0  0  0  0
    0.5055    0.2620   -0.5236 H   0  0  0  0  0  0  0  0  0  0  0  0
  1  2  1  0
  2  3  2  0
  3  4  1  0
  4  5  1  0
  4  6  1  0
  6  7  1  0
  6  8  2  0
  8  9  1  0
  9 10  1  0
 10 11  2  0
 10 12  2  0
 10 13  1  0
 13 14  2  0
 14 15  1  0
 14 16  1  0
 16 17  2  0
 17 18  1  0
 18 19  2  0
 19 20  1  0
 20 21  2  0
 21 22  1  0
 22 23  1  0
 23 24  1  0
 24 25  1  0
 25 26  1  0
 26 27  1  0
 27 28  1  0
 22 29  2  0
 17 30  1  0
 30 31  2  0
 31 32  1  0
  8  2  1  0
 31 13  1  0
 29 18  1  0
 28 23  1  0
  1 33  1  0
  1 34  1  0
  1 35  1  0
  5 36  1  0
  5 37  1  0
  5 38  1  0
  7 39  1  0
  7 40  1  0
  7 41  1  0
  9 42  1  0
 16 43  1  0
 19 44  1  0
 20 45  1  0
 24 46  1  0
 24 47  1  0
 25 48  1  0
 25 49  1  0
 26 50  1  0
 27 51  1  0
 27 52  1  0
 28 53  1  0
 28 54  1  0
 29 55  1  0
 30 56  1  0
M  END
$$$$
