
     RDKit          3D

 44 45  0  0  0  0  0  0  0  0999 V2000
    0.9447    0.9079   -0.6566 C   0  0  1  0  0  0  0  0  0  0  0  0
    1.1197    0.4396   -2.0087 N   0  0  0  0  0  0  0  0  0  0  0  0
    0.5523   -0.2156    0.2840 C   0  0  0  0  0  0  0  0  0  0  0  0
   -0.7244   -0.8513   -0.1264 C   0  0  0  0  0  0  0  0  0  0  0  0
   -0.5996   -1.7488   -1.0255 O   0  0  0  0  0  0  0  0  0  0  0  0
   -1.9535   -0.4579    0.4625 N   0  0  0  0  0  0  0  0  0  0  0  0
   -1.9473    0.5921    1.4825 C   0  0  0  0  0  0  0  0  0  0  0  0
   -3.2477    1.3672    1.4551 C   0  0  0  0  0  0  0  0  0  0  0  0
   -3.4691    2.0572    0.1327 C   0  0  0  0  0  0  0  0  0  0  0  0
   -3.8833    1.1370   -0.9196 N   0  0  0  0  0  0  0  0  0  0  0  0
   -3.7399   -0.2889   -1.0544 C   0  0  0  0  0  0  0  0  0  0  0  0
   -4.1719   -0.7682   -2.1134 O   0  0  0  0  0  0  0  0  0  0  0  0
   -3.1185   -1.1342   -0.0013 C   0  0  1  0  0  0  0  0  0  0  0  0
   -2.9078   -2.5498   -0.4593 C   0  0  0  0  0  0  0  0  0  0  0  0
    2.2511    1.5175   -0.1872 C   0  0  0  0  0  0  0  0  0  0  0  0
    3.3572    0.5382   -0.2146 C   0  0  0  0  0  0  0  0  0  0  0  0
    4.0348    0.1148   -1.3207 C   0  0  0  0  0  0  0  0  0  0  0  0
    3.6816    0.6347   -2.5191 F   0  0  0  0  0  0  0  0  0  0  0  0
    5.0507   -0.7935   -1.3290 C   0  0  0  0  0  0  0  0  0  0  0  0
    5.4443   -1.3450   -0.1255 C   0  0  0  0  0  0  0  0  0  0  0  0
    6.4475   -2.2546   -0.0447 F   0  0  0  0  0  0  0  0  0  0  0  0
    4.8237   -0.9825    1.0402 C   0  0  0  0  0  0  0  0  0  0  0  0
    5.1656   -1.4878    2.2432 F   0  0  0  0  0  0  0  0  0  0  0  0
    3.8017   -0.0563    0.9724 C   0  0  0  0  0  0  0  0  0  0  0  0
    0.1373    1.6667   -0.6949 H   0  0  0  0  0  0  0  0  0  0  0  0
    1.2396   -0.5880   -2.0854 H   0  0  0  0  0  0  0  0  0  0  0  0
    0.3810    0.7395   -2.6636 H   0  0  0  0  0  0  0  0  0  0  0  0
    0.5565    0.1535    1.3200 H   0  0  0  0  0  0  0  0  0  0  0  0
    1.4023   -0.9561    0.2073 H   0  0  0  0  0  0  0  0  0  0  0  0
   -1.8889    0.0819    2.4581 H   0  0  0  0  0  0  0  0  0  0  0  0
   -1.1291    1.2950    1.3473 H   0  0  0  0  0  0  0  0  0  0  0  0
   -3.1653    2.1570    2.2211 H   0  0  0  0  0  0  0  0  0  0  0  0
   -4.1091    0.7408    1.6878 H   0  0  0  0  0  0  0  0  0  0  0  0
   -2.5593    2.6077   -0.1846 H   0  0  0  0  0  0  0  0  0  0  0  0
   -4.3173    2.7632    0.2677 H   0  0  0  0  0  0  0  0  0  0  0  0
   -4.3722    1.6042   -1.7180 H   0  0  0  0  0  0  0  0  0  0  0  0
   -3.8879   -1.1754    0.8167 H   0  0  0  0  0  0  0  0  0  0  0  0
   -2.7125   -2.6038   -1.5502 H   0  0  0  0  0  0  0  0  0  0  0  0
   -2.1465   -3.0871    0.1034 H   0  0  0  0  0  0  0  0  0  0  0  0
   -3.8568   -3.1419   -0.3054 H   0  0  0  0  0  0  0  0  0  0  0  0
    2.1175    1.8532    0.8737 H   0  0  0  0  0  0  0  0  0  0  0  0
    2.5506    2.3656   -0.8219 H   0  0  0  0  0  0  0  0  0  0  0  0
    5.5434   -1.0823   -2.2463 H   0  0  0  0  0  0  0  0  0  0  0  0
    3.3050    0.2345    1.9064 H   0  0  0  0  0  0  0  0  0  0  0  0
  1  2  1  0
  1  3  1  0
  3  4  1  0
  4  5  2  0
  4  6  1  0
  6  7  1  0
  7  8  1  0
  8  9  1  0
  9 10  1  0
 10 11  1  0
 11 12  2  0
 11 13  1  0
 13 14  1  0
  1 15  1  0
 15 16  1  0
 16 17  2  0
 17 18  1  0
 17 19  1  0
 19 20  2  0
 20 21  1  0
 20 22  1  0
 22 23  1  0
 22 24  2  0
 13  6  1  0
 24 16  1  0
  1 25  1  6
  2 26  1  0
  2 27  1  0
  3 28  1  0
  3 29  1  0
  7 30  1  0
  7 31  1  0
  8 32  1  0
  8 33  1  0
  9 34  1  0
  9 35  1  0
 10 36  1  0
 13 37  1  1
 14 38  1  0
 14 39  1  0
 14 40  1  0
 15 41  1  0
 15 42  1  0
 19 43  1  0
 24 44  1  0
M  END
$$$$
