
     RDKit          3D

 45 48  0  0  0  0  0  0  0  0999 V2000
    1.2615   -0.8326   -0.6258 O   0  0  0  0  0  0  0  0  0  0  0  0
    1.5838    0.3329   -0.2856 C   0  0  0  0  0  0  0  0  0  0  0  0
    0.5681    1.4104   -0.3766 C   0  0  0  0  0  0  0  0  0  0  0  0
   -0.7168    0.8873   -0.8813 C   0  0  0  0  0  0  0  0  0  0  0  0
   -1.6747    0.4100   -0.0470 N   0  0  0  0  0  0  0  0  0  0  0  0
   -2.8492   -0.0700   -0.4847 C   0  0  0  0  0  0  0  0  0  0  0  0
   -3.8116   -0.5538    0.4060 N   0  0  0  0  0  0  0  0  0  0  0  0
   -3.5084   -0.5389    1.8485 C   0  0  0  0  0  0  0  0  0  0  0  0
   -4.6520    0.2073    2.5027 C   0  0  0  0  0  0  0  0  0  0  0  0
   -5.7972   -0.5615    2.3100 O   0  0  0  0  0  0  0  0  0  0  0  0
   -6.2041   -0.6055    1.0015 C   0  0  0  0  0  0  0  0  0  0  0  0
   -5.0944   -1.0758    0.0518 C   0  0  0  0  0  0  0  0  0  0  0  0
   -3.0394   -0.0546   -1.8478 C   0  0  0  0  0  0  0  0  0  0  0  0
   -2.0833    0.4242   -2.7121 C   0  0  0  0  0  0  0  0  0  0  0  0
   -2.2730    0.4297   -3.9351 O   0  0  0  0  0  0  0  0  0  0  0  0
   -0.9276    0.8921   -2.2222 N   0  0  0  0  0  0  0  0  0  0  0  0
    2.8904    0.6130    0.1756 N   0  0  0  0  0  0  0  0  0  0  0  0
    3.4518    1.8622    0.6068 C   0  0  0  0  0  0  0  0  0  0  0  0
    4.8814    1.7558    0.1879 C   0  0  0  0  0  0  0  0  0  0  0  0
    5.1598    0.2899    0.3174 C   0  0  0  0  0  0  0  0  0  0  0  0
    6.3199   -0.4172    0.4323 C   0  0  0  0  0  0  0  0  0  0  0  0
    6.2590   -1.7855    0.5358 C   0  0  0  0  0  0  0  0  0  0  0  0
    5.0705   -2.4670    0.5276 C   0  0  0  0  0  0  0  0  0  0  0  0
    3.9206   -1.7168    0.4098 C   0  0  0  0  0  0  0  0  0  0  0  0
    3.9504   -0.3465    0.3046 C   0  0  0  0  0  0  0  0  0  0  0  0
    0.9477    2.2199   -1.0219 H   0  0  0  0  0  0  0  0  0  0  0  0
    0.4265    1.8050    0.6673 H   0  0  0  0  0  0  0  0  0  0  0  0
   -2.5279   -0.0607    2.0343 H   0  0  0  0  0  0  0  0  0  0  0  0
   -3.5261   -1.5997    2.1958 H   0  0  0  0  0  0  0  0  0  0  0  0
   -4.4621    0.2577    3.5806 H   0  0  0  0  0  0  0  0  0  0  0  0
   -4.7363    1.2222    2.0832 H   0  0  0  0  0  0  0  0  0  0  0  0
   -6.9990   -1.3900    0.9276 H   0  0  0  0  0  0  0  0  0  0  0  0
   -6.6326    0.3343    0.6176 H   0  0  0  0  0  0  0  0  0  0  0  0
   -5.0153   -2.2005    0.1231 H   0  0  0  0  0  0  0  0  0  0  0  0
   -5.4504   -0.8602   -0.9508 H   0  0  0  0  0  0  0  0  0  0  0  0
   -3.9557   -0.4247   -2.2529 H   0  0  0  0  0  0  0  0  0  0  0  0
   -0.1713    1.2661   -2.8414 H   0  0  0  0  0  0  0  0  0  0  0  0
    3.4381    1.8785    1.7291 H   0  0  0  0  0  0  0  0  0  0  0  0
    2.9293    2.7427    0.2100 H   0  0  0  0  0  0  0  0  0  0  0  0
    5.0348    2.0366   -0.8901 H   0  0  0  0  0  0  0  0  0  0  0  0
    5.5607    2.3635    0.8047 H   0  0  0  0  0  0  0  0  0  0  0  0
    7.2853    0.1018    0.4417 H   0  0  0  0  0  0  0  0  0  0  0  0
    7.1737   -2.3552    0.6274 H   0  0  0  0  0  0  0  0  0  0  0  0
    5.0227   -3.5563    0.6100 H   0  0  0  0  0  0  0  0  0  0  0  0
    2.9723   -2.2703    0.4040 H   0  0  0  0  0  0  0  0  0  0  0  0
  1  2  2  0
  2  3  1  0
  3  4  1  0
  4  5  2  0
  5  6  1  0
  6  7  1  0
  7  8  1  0
  8  9  1  0
  9 10  1  0
 10 11  1  0
 11 12  1  0
  6 13  2  0
 13 14  1  0
 14 15  2  0
 14 16  1  0
  2 17  1  0
 17 18  1  0
 18 19  1  0
 19 20  1  0
 20 21  2  0
 21 22  1  0
 22 23  2  0
 23 24  1  0
 24 25  2  0
 16  4  1  0
 25 17  1  0
 12  7  1  0
 25 20  1  0
  3 26  1  0
  3 27  1  0
  8 28  1  0
  8 29  1  0
  9 30  1  0
  9 31  1  0
 11 32  1  0
 11 33  1  0
 12 34  1  0
 12 35  1  0
 13 36  1  0
 16 37  1  0
 18 38  1  0
 18 39  1  0
 19 40  1  0
 19 41  1  0
 21 42  1  0
 22 43  1  0
 23 44  1  0
 24 45  1  0
M  END
$$$$
