
     RDKit          3D

 48 50  0  0  0  0  0  0  0  0999 V2000
    0.7917    1.3048    0.2278 C   0  0  2  0  0  0  0  0  0  0  0  0
   -0.0231    1.7627    1.2847 N   0  0  0  0  0  0  0  0  0  0  0  0
    0.0932    1.1827    2.5537 C   0  0  0  0  0  0  0  0  0  0  0  0
    0.3372   -0.2951    2.6232 C   0  0  0  0  0  0  0  0  0  0  0  0
    1.2603   -0.7928    1.6009 C   0  0  0  0  0  0  0  0  0  0  0  0
    1.9003   -1.9842    1.7597 C   0  0  0  0  0  0  0  0  0  0  0  0
    2.7728   -2.4428    0.7811 C   0  0  0  0  0  0  0  0  0  0  0  0
    3.3631   -3.6804    1.0699 O   0  0  0  0  0  0  0  0  0  0  0  0
    2.9821   -1.6671   -0.3620 C   0  0  0  0  0  0  0  0  0  0  0  0
    3.8672   -2.2432   -1.2411 O   0  0  0  0  0  0  0  0  0  0  0  0
    4.2246   -1.6288   -2.4648 C   0  0  0  0  0  0  0  0  0  0  0  0
    2.3211   -0.4791   -0.4825 C   0  0  0  0  0  0  0  0  0  0  0  0
    1.4491   -0.0001    0.4744 C   0  0  0  0  0  0  0  0  0  0  0  0
   -1.5591    2.2884    0.7926 S   0  0  0  0  0  0  0  0  0  0  0  0
   -2.3045    2.7050    2.0539 O   0  0  0  0  0  0  0  0  0  0  0  0
   -1.5085    3.5355   -0.0511 O   0  0  0  0  0  0  0  0  0  0  0  0
   -2.4963    1.0383    0.0528 C   0  0  0  0  0  0  0  0  0  0  0  0
   -2.3797    0.8953   -1.2975 C   0  0  0  0  0  0  0  0  0  0  0  0
   -3.0975   -0.0839   -1.9705 C   0  0  0  0  0  0  0  0  0  0  0  0
   -3.9408   -0.9305   -1.2931 C   0  0  0  0  0  0  0  0  0  0  0  0
   -4.7171   -1.9457   -1.8097 O   0  0  0  0  0  0  0  0  0  0  0  0
   -4.7105   -2.2248   -3.1963 C   0  0  0  0  0  0  0  0  0  0  0  0
   -4.0424   -0.7659    0.0768 C   0  0  0  0  0  0  0  0  0  0  0  0
   -3.3305    0.2115    0.7745 C   0  0  0  0  0  0  0  0  0  0  0  0
    1.9047    2.3044    0.0416 C   0  0  0  0  0  0  0  0  0  0  0  0
    2.8390    2.2596   -0.8000 O   0  0  0  0  0  0  0  0  0  0  0  0
    2.0010    3.4748    0.8657 N   0  0  0  0  0  0  0  0  0  0  0  0
    3.0372    4.3336    0.6366 O   0  0  0  0  0  0  0  0  0  0  0  0
    0.2992    1.2110   -0.7646 H   0  0  0  0  0  0  0  0  0  0  0  0
    0.9338    1.6826    3.1014 H   0  0  0  0  0  0  0  0  0  0  0  0
   -0.8133    1.3836    3.1604 H   0  0  0  0  0  0  0  0  0  0  0  0
   -0.6502   -0.8088    2.5805 H   0  0  0  0  0  0  0  0  0  0  0  0
    0.7719   -0.5177    3.6211 H   0  0  0  0  0  0  0  0  0  0  0  0
    1.6988   -2.5403    2.6647 H   0  0  0  0  0  0  0  0  0  0  0  0
    4.2241   -3.9524    0.6305 H   0  0  0  0  0  0  0  0  0  0  0  0
    3.3598   -1.8190   -3.1501 H   0  0  0  0  0  0  0  0  0  0  0  0
    4.4185   -0.5669   -2.2806 H   0  0  0  0  0  0  0  0  0  0  0  0
    5.1302   -2.1778   -2.8237 H   0  0  0  0  0  0  0  0  0  0  0  0
    2.5760    0.0213   -1.4190 H   0  0  0  0  0  0  0  0  0  0  0  0
   -1.7622    1.4778   -1.9745 H   0  0  0  0  0  0  0  0  0  0  0  0
   -3.0464   -0.2464   -3.0449 H   0  0  0  0  0  0  0  0  0  0  0  0
   -4.6357   -1.2890   -3.7907 H   0  0  0  0  0  0  0  0  0  0  0  0
   -5.6543   -2.7607   -3.4444 H   0  0  0  0  0  0  0  0  0  0  0  0
   -3.8448   -2.8728   -3.4167 H   0  0  0  0  0  0  0  0  0  0  0  0
   -4.6825   -1.3837    0.7107 H   0  0  0  0  0  0  0  0  0  0  0  0
   -3.4199    0.3270    1.8388 H   0  0  0  0  0  0  0  0  0  0  0  0
    1.2879    3.6529    1.6195 H   0  0  0  0  0  0  0  0  0  0  0  0
    2.7742    5.0471   -0.0152 H   0  0  0  0  0  0  0  0  0  0  0  0
  1  2  1  0
  2  3  1  0
  3  4  1  0
  4  5  1  0
  5  6  2  0
  6  7  1  0
  7  8  1  0
  7  9  2  0
  9 10  1  0
 10 11  1  0
  9 12  1  0
 12 13  2  0
  2 14  1  0
 14 15  2  0
 14 16  2  0
 14 17  1  0
 17 18  2  0
 18 19  1  0
 19 20  2  0
 20 21  1  0
 21 22  1  0
 20 23  1  0
 23 24  2  0
  1 25  1  0
 25 26  2  0
 25 27  1  0
 27 28  1  0
 13  1  1  0
 24 17  1  0
 13  5  1  0
  1 29  1  6
  3 30  1  0
  3 31  1  0
  4 32  1  0
  4 33  1  0
  6 34  1  0
  8 35  1  0
 11 36  1  0
 11 37  1  0
 11 38  1  0
 12 39  1  0
 18 40  1  0
 19 41  1  0
 22 42  1  0
 22 43  1  0
 22 44  1  0
 23 45  1  0
 24 46  1  0
 27 47  1  0
 28 48  1  0
M  END
$$$$
