
     RDKit          3D

 44 47  0  0  0  0  0  0  0  0999 V2000
   -4.0417    0.7460   -1.3348 C   0  0  0  0  0  0  0  0  0  0  0  0
   -2.8172    0.8234   -0.4492 C   0  0  2  0  0  0  0  0  0  0  0  0
   -1.8729    1.7763   -1.1393 C   0  0  0  0  0  0  0  0  0  0  0  0
   -0.7020    2.0018   -0.2326 C   0  0  0  0  0  0  0  0  0  0  0  0
   -0.4697    3.2948    0.1958 C   0  0  0  0  0  0  0  0  0  0  0  0
    0.5751    3.5221    1.0783 C   0  0  0  0  0  0  0  0  0  0  0  0
    1.4096    2.5111    1.5617 C   0  0  0  0  0  0  0  0  0  0  0  0
    2.3526    3.0456    2.4203 O   0  0  0  0  0  0  0  0  0  0  0  0
    2.2708    4.4490    2.3164 C   0  0  0  0  0  0  0  0  0  0  0  0
    1.0395    4.6952    1.6696 O   0  0  0  0  0  0  0  0  0  0  0  0
    1.2072    1.2144    1.1571 C   0  0  0  0  0  0  0  0  0  0  0  0
    0.1437    1.0360    0.2642 C   0  0  0  0  0  0  0  0  0  0  0  0
    0.0728   -0.3950   -0.1078 C   0  0  0  0  0  0  0  0  0  0  0  0
   -1.0391   -1.0327   -0.3048 N   0  0  0  0  0  0  0  0  0  0  0  0
   -2.3355   -0.4898   -0.2079 N   0  0  0  0  0  0  0  0  0  0  0  0
   -3.3311   -1.4560    0.2002 C   0  0  0  0  0  0  0  0  0  0  0  0
   -2.9646   -2.8618    0.4680 C   0  0  0  0  0  0  0  0  0  0  0  0
   -4.5308   -1.1231    0.3366 O   0  0  0  0  0  0  0  0  0  0  0  0
    1.2965   -1.1602   -0.2597 C   0  0  0  0  0  0  0  0  0  0  0  0
    1.0871   -2.5201   -0.4122 C   0  0  0  0  0  0  0  0  0  0  0  0
    2.0798   -3.4543   -0.6464 C   0  0  0  0  0  0  0  0  0  0  0  0
    3.3827   -3.0531   -0.7428 C   0  0  0  0  0  0  0  0  0  0  0  0
    4.4879   -3.9135   -0.9792 N   0  0  0  0  0  0  0  0  0  0  0  0
    3.6455   -1.7092   -0.5997 C   0  0  0  0  0  0  0  0  0  0  0  0
    2.6139   -0.8348   -0.3698 C   0  0  0  0  0  0  0  0  0  0  0  0
   -4.0207    1.4963   -2.1596 H   0  0  0  0  0  0  0  0  0  0  0  0
   -4.9894    0.8664   -0.7677 H   0  0  0  0  0  0  0  0  0  0  0  0
   -4.0635   -0.2676   -1.7821 H   0  0  0  0  0  0  0  0  0  0  0  0
   -3.1856    1.3009    0.5068 H   0  0  0  0  0  0  0  0  0  0  0  0
   -2.3930    2.6950   -1.3772 H   0  0  0  0  0  0  0  0  0  0  0  0
   -1.5063    1.2838   -2.0606 H   0  0  0  0  0  0  0  0  0  0  0  0
   -1.1179    4.0482   -0.1844 H   0  0  0  0  0  0  0  0  0  0  0  0
    3.1243    4.8730    1.7461 H   0  0  0  0  0  0  0  0  0  0  0  0
    2.3054    4.9130    3.3355 H   0  0  0  0  0  0  0  0  0  0  0  0
    1.7635    0.3548    1.5031 H   0  0  0  0  0  0  0  0  0  0  0  0
   -3.8551   -3.5088    0.4348 H   0  0  0  0  0  0  0  0  0  0  0  0
   -2.2792   -3.2690   -0.3299 H   0  0  0  0  0  0  0  0  0  0  0  0
   -2.4275   -2.9694    1.4423 H   0  0  0  0  0  0  0  0  0  0  0  0
    0.1042   -3.0047   -0.3627 H   0  0  0  0  0  0  0  0  0  0  0  0
    1.9121   -4.5153   -0.7649 H   0  0  0  0  0  0  0  0  0  0  0  0
    4.9710   -4.1341   -0.0803 H   0  0  0  0  0  0  0  0  0  0  0  0
    4.5968   -4.1530   -1.9994 H   0  0  0  0  0  0  0  0  0  0  0  0
    4.6485   -1.3239   -0.6642 H   0  0  0  0  0  0  0  0  0  0  0  0
    2.8524    0.2021   -0.3177 H   0  0  0  0  0  0  0  0  0  0  0  0
  1  2  1  0
  2  3  1  0
  3  4  1  0
  4  5  2  0
  5  6  1  0
  6  7  2  0
  7  8  1  0
  8  9  1  0
  9 10  1  0
  7 11  1  0
 11 12  2  0
 12 13  1  0
 13 14  2  0
 14 15  1  0
 15 16  1  0
 16 17  1  0
 16 18  2  0
 13 19  1  0
 19 20  2  0
 20 21  1  0
 21 22  2  0
 22 23  1  0
 22 24  1  0
 24 25  2  0
 15  2  1  0
 25 19  1  0
 12  4  1  0
 10  6  1  0
  1 26  1  0
  1 27  1  0
  1 28  1  0
  2 29  1  1
  3 30  1  0
  3 31  1  0
  5 32  1  0
  9 33  1  0
  9 34  1  0
 11 35  1  0
 17 36  1  0
 17 37  1  0
 17 38  1  0
 20 39  1  0
 21 40  1  0
 23 41  1  0
 23 42  1  0
 24 43  1  0
 25 44  1  0
M  END
$$$$
