
     RDKit          3D

 26 27  0  0  0  0  0  0  0  0999 V2000
    4.1034   -0.6583   -1.0296 C   0  0  0  0  0  0  0  0  0  0  0  0
    3.2295   -0.7009   -0.2034 C   0  0  0  0  0  0  0  0  0  0  0  0
    2.1691   -0.7451    0.8326 C   0  0  0  0  0  0  0  0  0  0  0  0
    1.4683    0.5178    0.8309 N   0  0  0  0  0  0  0  0  0  0  0  0
    0.6905    0.7340   -0.3629 C   0  0  2  0  0  0  0  0  0  0  0  0
    0.0203    2.0996   -0.2575 C   0  0  0  0  0  0  0  0  0  0  0  0
   -1.1871    1.8342    0.6354 C   0  0  0  0  0  0  0  0  0  0  0  0
   -1.5756    0.4332    0.2798 C   0  0  0  0  0  0  0  0  0  0  0  0
   -2.7914   -0.1319    0.4833 C   0  0  0  0  0  0  0  0  0  0  0  0
   -3.0096   -1.4230    0.0935 C   0  0  0  0  0  0  0  0  0  0  0  0
   -1.9807   -2.1108   -0.4969 C   0  0  0  0  0  0  0  0  0  0  0  0
   -0.7644   -1.5069   -0.6864 C   0  0  0  0  0  0  0  0  0  0  0  0
   -0.4838   -0.2128   -0.3157 C   0  0  0  0  0  0  0  0  0  0  0  0
    4.8663   -0.6211   -1.7661 H   0  0  0  0  0  0  0  0  0  0  0  0
    2.6571   -0.8528    1.8294 H   0  0  0  0  0  0  0  0  0  0  0  0
    1.5080   -1.5874    0.6149 H   0  0  0  0  0  0  0  0  0  0  0  0
    2.1088    1.3179    0.9707 H   0  0  0  0  0  0  0  0  0  0  0  0
    1.2852    0.6258   -1.2686 H   0  0  0  0  0  0  0  0  0  0  0  0
   -0.3457    2.4130   -1.2454 H   0  0  0  0  0  0  0  0  0  0  0  0
    0.7023    2.8567    0.1274 H   0  0  0  0  0  0  0  0  0  0  0  0
   -0.9550    1.9233    1.7137 H   0  0  0  0  0  0  0  0  0  0  0  0
   -2.0113    2.5395    0.4172 H   0  0  0  0  0  0  0  0  0  0  0  0
   -3.6252    0.3741    0.9417 H   0  0  0  0  0  0  0  0  0  0  0  0
   -3.9614   -1.8989    0.2411 H   0  0  0  0  0  0  0  0  0  0  0  0
   -2.1270   -3.1358   -0.8154 H   0  0  0  0  0  0  0  0  0  0  0  0
    0.0096   -2.0832   -1.1569 H   0  0  0  0  0  0  0  0  0  0  0  0
  1  2  3  0
  2  3  1  0
  3  4  1  0
  4  5  1  0
  5  6  1  0
  6  7  1  0
  7  8  1  0
  8  9  2  0
  9 10  1  0
 10 11  2  0
 11 12  1  0
 12 13  2  0
 13  5  1  0
 13  8  1  0
  1 14  1  0
  3 15  1  0
  3 16  1  0
  4 17  1  0
  5 18  1  6
  6 19  1  0
  6 20  1  0
  7 21  1  0
  7 22  1  0
  9 23  1  0
 10 24  1  0
 11 25  1  0
 12 26  1  0
M  END
$$$$
