
     RDKit          3D

 49 53  0  0  0  0  0  0  0  0999 V2000
    8.9065   -0.6642   -1.4936 C   0  0  0  0  0  0  0  0  0  0  0  0
    7.6500   -0.7854   -2.1235 O   0  0  0  0  0  0  0  0  0  0  0  0
    6.5058   -0.5474   -1.3819 C   0  0  0  0  0  0  0  0  0  0  0  0
    5.2398   -0.6451   -1.9245 C   0  0  0  0  0  0  0  0  0  0  0  0
    4.1524   -0.4001   -1.1488 N   0  0  0  0  0  0  0  0  0  0  0  0
    4.2683   -0.0623    0.1423 C   0  0  0  0  0  0  0  0  0  0  0  0
    3.0657    0.2031    0.9790 C   0  0  0  0  0  0  0  0  0  0  0  0
    3.2212    0.5161    2.1819 O   0  0  0  0  0  0  0  0  0  0  0  0
    1.7810    0.1040    0.4293 N   0  0  0  0  0  0  0  0  0  0  0  0
    0.5299    0.3303    1.1119 C   0  0  0  0  0  0  0  0  0  0  0  0
    0.4254    0.6820    2.4291 C   0  0  0  0  0  0  0  0  0  0  0  0
   -0.7965    0.8871    3.0257 C   0  0  0  0  0  0  0  0  0  0  0  0
   -1.9885    0.7407    2.2980 C   0  0  0  0  0  0  0  0  0  0  0  0
   -1.8859    0.3861    0.9914 C   0  0  0  0  0  0  0  0  0  0  0  0
   -0.6350    0.1825    0.3892 C   0  0  0  0  0  0  0  0  0  0  0  0
   -3.0913    0.1190    0.1509 C   0  0  0  0  0  0  0  0  0  0  0  0
   -3.2430   -1.3912    0.0432 C   0  0  0  0  0  0  0  0  0  0  0  0
   -2.3685   -2.0846   -0.9261 C   0  0  0  0  0  0  0  0  0  0  0  0
   -2.4766   -1.2822   -2.5427 S   0  0  0  0  0  0  0  0  0  0  0  0
   -2.8193    0.4452   -2.2641 C   0  0  0  0  0  0  0  0  0  0  0  0
   -2.8269    1.3545   -3.3843 N   0  0  0  0  0  0  0  0  0  0  0  0
   -3.0466    0.8191   -1.0822 N   0  0  0  0  0  0  0  0  0  0  0  0
   -4.3382    0.5029    0.9034 C   0  0  0  0  0  0  0  0  0  0  0  0
   -5.5197    0.3892    0.1584 C   0  0  0  0  0  0  0  0  0  0  0  0
   -6.6924    0.6463    0.8163 C   0  0  0  0  0  0  0  0  0  0  0  0
   -8.1871    0.5035   -0.1223 Cl  0  0  0  0  0  0  0  0  0  0  0  0
   -6.7325    0.9920    2.1115 N   0  0  0  0  0  0  0  0  0  0  0  0
   -5.5873    1.0954    2.8025 C   0  0  0  0  0  0  0  0  0  0  0  0
   -5.6557    1.4500    4.1236 F   0  0  0  0  0  0  0  0  0  0  0  0
   -4.3402    0.8517    2.2094 C   0  0  0  0  0  0  0  0  0  0  0  0
   -3.1913    0.9844    2.9649 O   0  0  0  0  0  0  0  0  0  0  0  0
    5.5381    0.0255    0.6479 C   0  0  0  0  0  0  0  0  0  0  0  0
    6.6226   -0.2094   -0.0902 N   0  0  0  0  0  0  0  0  0  0  0  0
    8.8156   -0.4019   -0.4134 H   0  0  0  0  0  0  0  0  0  0  0  0
    9.3493   -1.7031   -1.4925 H   0  0  0  0  0  0  0  0  0  0  0  0
    9.5844    0.0481   -2.0095 H   0  0  0  0  0  0  0  0  0  0  0  0
    5.1664   -0.9185   -2.9665 H   0  0  0  0  0  0  0  0  0  0  0  0
    1.7464   -0.1689   -0.6051 H   0  0  0  0  0  0  0  0  0  0  0  0
    1.3173    0.8086    3.0409 H   0  0  0  0  0  0  0  0  0  0  0  0
   -0.8872    1.1699    4.0814 H   0  0  0  0  0  0  0  0  0  0  0  0
   -0.5841   -0.0562   -0.6426 H   0  0  0  0  0  0  0  0  0  0  0  0
   -4.3208   -1.5716   -0.2089 H   0  0  0  0  0  0  0  0  0  0  0  0
   -3.0476   -1.7598    1.1008 H   0  0  0  0  0  0  0  0  0  0  0  0
   -2.7689   -3.1598   -1.0186 H   0  0  0  0  0  0  0  0  0  0  0  0
   -1.3133   -2.1612   -0.6355 H   0  0  0  0  0  0  0  0  0  0  0  0
   -3.4694    1.1313   -4.1660 H   0  0  0  0  0  0  0  0  0  0  0  0
   -2.2391    2.1984   -3.4486 H   0  0  0  0  0  0  0  0  0  0  0  0
   -5.4973    0.1117   -0.8841 H   0  0  0  0  0  0  0  0  0  0  0  0
    5.6638    0.2947    1.6813 H   0  0  0  0  0  0  0  0  0  0  0  0
  1  2  1  0
  2  3  1  0
  3  4  2  0
  4  5  1  0
  5  6  2  0
  6  7  1  0
  7  8  2  0
  7  9  1  0
  9 10  1  0
 10 11  2  0
 11 12  1  0
 12 13  2  0
 13 14  1  0
 14 15  2  0
 14 16  1  0
 16 17  1  0
 17 18  1  0
 18 19  1  0
 19 20  1  0
 20 21  1  0
 20 22  2  0
 16 23  1  0
 23 24  2  0
 24 25  1  0
 25 26  1  0
 25 27  2  0
 27 28  1  0
 28 29  1  0
 28 30  2  0
 30 31  1  0
  6 32  1  0
 32 33  2  0
 33  3  1  0
 15 10  1  0
 22 16  1  0
 30 23  1  0
 31 13  1  0
  1 34  1  0
  1 35  1  0
  1 36  1  0
  4 37  1  0
  9 38  1  0
 11 39  1  0
 12 40  1  0
 15 41  1  0
 17 42  1  0
 17 43  1  0
 18 44  1  0
 18 45  1  0
 21 46  1  0
 21 47  1  0
 24 48  1  0
 32 49  1  0
M  END
$$$$
