
     RDKit          3D

 49 52  0  0  0  0  0  0  0  0999 V2000
    0.4320    3.1350   -2.1323 C   0  0  0  0  0  0  0  0  0  0  0  0
    0.2075    1.8728   -1.3925 C   0  0  0  0  0  0  0  0  0  0  0  0
    1.2206    0.9638   -1.2785 C   0  0  0  0  0  0  0  0  0  0  0  0
    1.0097   -0.2094   -0.5928 C   0  0  0  0  0  0  0  0  0  0  0  0
    2.0325   -1.1765   -0.4553 N   0  0  0  0  0  0  0  0  0  0  0  0
    3.3607   -0.8848   -0.8004 C   0  0  0  0  0  0  0  0  0  0  0  0
    3.7790   -0.7729   -2.0692 N   0  0  0  0  0  0  0  0  0  0  0  0
    5.0534   -0.5099   -2.3919 C   0  0  0  0  0  0  0  0  0  0  0  0
    5.9585   -0.3495   -1.4217 N   0  0  0  0  0  0  0  0  0  0  0  0
    5.6442   -0.4413   -0.1244 C   0  0  0  0  0  0  0  0  0  0  0  0
    6.6033   -0.2786    0.8624 C   0  0  0  0  0  0  0  0  0  0  0  0
    6.2078   -0.3949    2.1694 C   0  0  0  0  0  0  0  0  0  0  0  0
    7.3994   -0.2022    3.4414 Cl  0  0  0  0  0  0  0  0  0  0  0  0
    4.8881   -0.6649    2.4538 C   0  0  0  0  0  0  0  0  0  0  0  0
    3.9613   -0.8216    1.4866 N   0  0  0  0  0  0  0  0  0  0  0  0
    4.3300   -0.7119    0.1931 C   0  0  0  0  0  0  0  0  0  0  0  0
   -0.2520   -0.4166   -0.0359 C   0  0  0  0  0  0  0  0  0  0  0  0
   -1.2934    0.4650   -0.1239 C   0  0  0  0  0  0  0  0  0  0  0  0
   -2.6228    0.3002    0.4784 C   0  0  2  0  0  0  0  0  0  0  0  0
   -2.8518    1.5233    1.3804 C   0  0  0  0  0  0  0  0  0  0  0  0
   -1.8588    1.5829    2.3580 F   0  0  0  0  0  0  0  0  0  0  0  0
   -2.8325   -0.9015    1.3133 C   0  0  0  0  0  0  0  0  0  0  0  0
   -3.9086   -1.8547    0.8554 C   0  0  1  0  0  0  0  0  0  0  0  0
   -5.2236   -1.5976    1.5622 C   0  0  0  0  0  0  0  0  0  0  0  0
   -6.1261   -2.5284    1.0673 F   0  0  0  0  0  0  0  0  0  0  0  0
   -5.1236   -1.7856    2.9117 F   0  0  0  0  0  0  0  0  0  0  0  0
   -5.7424   -0.3574    1.2135 F   0  0  0  0  0  0  0  0  0  0  0  0
   -4.1034   -1.8337   -0.5414 O   0  0  0  0  0  0  0  0  0  0  0  0
   -4.2771   -0.5467   -1.0874 C   0  0  0  0  0  0  0  0  0  0  0  0
   -5.2047   -0.3239   -2.1586 N   0  0  0  0  0  0  0  0  0  0  0  0
   -3.5762    0.3821   -0.5826 N   0  0  0  0  0  0  0  0  0  0  0  0
   -1.0462    1.6272   -0.8194 C   0  0  0  0  0  0  0  0  0  0  0  0
   -1.9900    2.6019   -1.0337 F   0  0  0  0  0  0  0  0  0  0  0  0
    1.4668    3.2358   -2.4564 H   0  0  0  0  0  0  0  0  0  0  0  0
    0.0907    3.9682   -1.4635 H   0  0  0  0  0  0  0  0  0  0  0  0
   -0.2885    3.1439   -2.9861 H   0  0  0  0  0  0  0  0  0  0  0  0
    2.2133    1.1202   -1.7136 H   0  0  0  0  0  0  0  0  0  0  0  0
    1.7874   -2.1125   -0.0929 H   0  0  0  0  0  0  0  0  0  0  0  0
    5.3979   -0.4187   -3.4215 H   0  0  0  0  0  0  0  0  0  0  0  0
    7.6237   -0.0697    0.6201 H   0  0  0  0  0  0  0  0  0  0  0  0
    4.5702   -0.7596    3.4858 H   0  0  0  0  0  0  0  0  0  0  0  0
   -0.3756   -1.3288    0.4782 H   0  0  0  0  0  0  0  0  0  0  0  0
   -2.9070    2.4685    0.8848 H   0  0  0  0  0  0  0  0  0  0  0  0
   -3.7922    1.3364    1.9976 H   0  0  0  0  0  0  0  0  0  0  0  0
   -1.9585   -1.5145    1.5677 H   0  0  0  0  0  0  0  0  0  0  0  0
   -3.1984   -0.5613    2.3410 H   0  0  0  0  0  0  0  0  0  0  0  0
   -3.6333   -2.9012    1.1268 H   0  0  0  0  0  0  0  0  0  0  0  0
   -6.0971    0.1332   -1.9683 H   0  0  0  0  0  0  0  0  0  0  0  0
   -4.9543   -0.6298   -3.1046 H   0  0  0  0  0  0  0  0  0  0  0  0
  1  2  1  0
  2  3  2  0
  3  4  1  0
  4  5  1  0
  5  6  1  0
  6  7  2  0
  7  8  1  0
  8  9  2  0
  9 10  1  0
 10 11  2  0
 11 12  1  0
 12 13  1  0
 12 14  2  0
 14 15  1  0
 15 16  2  0
  4 17  2  0
 17 18  1  0
 18 19  1  0
 19 20  1  1
 20 21  1  0
 19 22  1  0
 22 23  1  0
 23 24  1  0
 24 25  1  0
 24 26  1  0
 24 27  1  0
 23 28  1  0
 28 29  1  0
 29 30  1  0
 29 31  2  0
 18 32  2  0
 32 33  1  0
 32  2  1  0
 16  6  1  0
 31 19  1  0
 16 10  1  0
  1 34  1  0
  1 35  1  0
  1 36  1  0
  3 37  1  0
  5 38  1  0
  8 39  1  0
 11 40  1  0
 14 41  1  0
 17 42  1  0
 20 43  1  0
 20 44  1  0
 22 45  1  0
 22 46  1  0
 23 47  1  1
 30 48  1  0
 30 49  1  0
M  END
$$$$
