
     RDKit          3D

 57 60  0  0  0  0  0  0  0  0999 V2000
    6.1242    0.1319   -3.2270 N   0  0  0  0  0  0  0  0  0  0  0  0
    6.7735    0.5216   -2.2021 C   0  0  0  0  0  0  0  0  0  0  0  0
    8.1786    0.6138   -2.2428 N   0  0  0  0  0  0  0  0  0  0  0  0
    6.0679    0.8717   -0.9884 C   0  0  0  0  0  0  0  0  0  0  0  0
    6.5913    1.8294   -0.1333 C   0  0  0  0  0  0  0  0  0  0  0  0
    5.9512    2.1976    1.0407 C   0  0  0  0  0  0  0  0  0  0  0  0
    4.7555    1.6007    1.3815 C   0  0  0  0  0  0  0  0  0  0  0  0
    4.1989    0.6329    0.5451 C   0  0  0  0  0  0  0  0  0  0  0  0
    2.9967    0.0420    0.9011 O   0  0  0  0  0  0  0  0  0  0  0  0
    3.0332   -1.1005    1.6718 C   0  0  0  0  0  0  0  0  0  0  0  0
    4.2343   -1.6467    2.0821 C   0  0  0  0  0  0  0  0  0  0  0  0
    4.2812   -2.7901    2.8537 C   0  0  0  0  0  0  0  0  0  0  0  0
    3.0965   -3.3791    3.2084 C   0  0  0  0  0  0  0  0  0  0  0  0
    1.8768   -2.8261    2.7929 C   0  0  0  0  0  0  0  0  0  0  0  0
    1.8254   -1.6854    2.0229 C   0  0  0  0  0  0  0  0  0  0  0  0
    0.6354   -1.0922    1.5809 N   0  0  0  0  0  0  0  0  0  0  0  0
   -0.6898   -1.4940    1.8040 C   0  0  0  0  0  0  0  0  0  0  0  0
   -0.8998   -2.5221    2.4889 O   0  0  0  0  0  0  0  0  0  0  0  0
   -1.8649   -0.7721    1.2756 C   0  0  0  0  0  0  0  0  0  0  0  0
   -3.1428   -1.2156    1.5286 C   0  0  0  0  0  0  0  0  0  0  0  0
   -4.2886   -0.5994    1.0722 C   0  0  0  0  0  0  0  0  0  0  0  0
   -4.1595    0.5347    0.3112 C   0  0  0  0  0  0  0  0  0  0  0  0
   -5.3512    1.2076   -0.2223 C   0  0  0  0  0  0  0  0  0  0  0  0
   -5.7259    2.4377    0.2879 C   0  0  0  0  0  0  0  0  0  0  0  0
   -6.8479    3.1052   -0.1424 C   0  0  0  0  0  0  0  0  0  0  0  0
   -7.6431    2.5466   -1.1172 C   0  0  0  0  0  0  0  0  0  0  0  0
   -7.2836    1.3275   -1.6329 C   0  0  0  0  0  0  0  0  0  0  0  0
   -6.1410    0.6468   -1.1963 C   0  0  0  0  0  0  0  0  0  0  0  0
   -5.7586   -0.8673   -1.9500 S   0  0  0  0  0  6  0  0  0  0  0  0
   -6.9550   -1.2297   -3.1655 N   0  0  0  0  0  0  0  0  0  0  0  0
   -5.7194   -2.0363   -1.0464 O   0  0  0  0  0  0  0  0  0  0  0  0
   -4.4400   -0.7912   -2.6696 O   0  0  0  0  0  0  0  0  0  0  0  0
   -2.8927    1.0065    0.0394 C   0  0  0  0  0  0  0  0  0  0  0  0
   -1.7566    0.3640    0.5139 C   0  0  0  0  0  0  0  0  0  0  0  0
    4.8664    0.2933   -0.6152 C   0  0  0  0  0  0  0  0  0  0  0  0
    6.6426   -0.1173   -4.0938 H   0  0  0  0  0  0  0  0  0  0  0  0
    8.7038    1.1115   -1.4695 H   0  0  0  0  0  0  0  0  0  0  0  0
    8.7509    0.2046   -3.0201 H   0  0  0  0  0  0  0  0  0  0  0  0
    7.5337    2.3428   -0.3398 H   0  0  0  0  0  0  0  0  0  0  0  0
    6.3732    2.9509    1.7031 H   0  0  0  0  0  0  0  0  0  0  0  0
    4.2173    1.8435    2.2723 H   0  0  0  0  0  0  0  0  0  0  0  0
    5.1721   -1.1996    1.8141 H   0  0  0  0  0  0  0  0  0  0  0  0
    5.1994   -3.2438    3.1917 H   0  0  0  0  0  0  0  0  0  0  0  0
    3.0650   -4.2674    3.8055 H   0  0  0  0  0  0  0  0  0  0  0  0
    0.9988   -3.3356    3.1050 H   0  0  0  0  0  0  0  0  0  0  0  0
    0.7251   -0.2068    0.9881 H   0  0  0  0  0  0  0  0  0  0  0  0
   -3.2344   -2.1110    2.1287 H   0  0  0  0  0  0  0  0  0  0  0  0
   -5.2837   -1.0034    1.3363 H   0  0  0  0  0  0  0  0  0  0  0  0
   -5.1042    2.9069    1.0710 H   0  0  0  0  0  0  0  0  0  0  0  0
   -7.1373    4.0688    0.2604 H   0  0  0  0  0  0  0  0  0  0  0  0
   -8.5482    3.0575   -1.4815 H   0  0  0  0  0  0  0  0  0  0  0  0
   -7.9241    0.8862   -2.4125 H   0  0  0  0  0  0  0  0  0  0  0  0
   -7.1325   -0.4134   -3.7712 H   0  0  0  0  0  0  0  0  0  0  0  0
   -7.8017   -1.5891   -2.6731 H   0  0  0  0  0  0  0  0  0  0  0  0
   -2.7809    1.9120   -0.5668 H   0  0  0  0  0  0  0  0  0  0  0  0
   -0.8230    0.7965    0.2564 H   0  0  0  0  0  0  0  0  0  0  0  0
    4.4616   -0.4575   -1.2911 H   0  0  0  0  0  0  0  0  0  0  0  0
  1  2  2  3
  2  3  1  0
  2  4  1  0
  4  5  2  0
  5  6  1  0
  6  7  2  0
  7  8  1  0
  8  9  1  0
  9 10  1  0
 10 11  2  0
 11 12  1  0
 12 13  2  0
 13 14  1  0
 14 15  2  0
 15 16  1  0
 16 17  1  0
 17 18  2  0
 17 19  1  0
 19 20  2  0
 20 21  1  0
 21 22  2  0
 22 23  1  0
 23 24  2  0
 24 25  1  0
 25 26  2  0
 26 27  1  0
 27 28  2  0
 28 29  1  0
 29 30  1  0
 29 31  2  0
 29 32  2  0
 22 33  1  0
 33 34  2  0
  8 35  2  0
 35  4  1  0
 15 10  1  0
 34 19  1  0
 28 23  1  0
  1 36  1  0
  3 37  1  0
  3 38  1  0
  5 39  1  0
  6 40  1  0
  7 41  1  0
 11 42  1  0
 12 43  1  0
 13 44  1  0
 14 45  1  0
 16 46  1  0
 20 47  1  0
 21 48  1  0
 24 49  1  0
 25 50  1  0
 26 51  1  0
 27 52  1  0
 30 53  1  0
 30 54  1  0
 33 55  1  0
 34 56  1  0
 35 57  1  0
M  END
$$$$
