
     RDKit          3D

 74 77  0  0  0  0  0  0  0  0999 V2000
   10.0543   -1.0928    2.4997 C   0  0  0  0  0  0  0  0  0  0  0  0
   10.1672   -0.4511    1.1434 C   0  0  0  0  0  0  0  0  0  0  0  0
   11.0184   -1.3422    0.2697 C   0  0  0  0  0  0  0  0  0  0  0  0
    8.7842   -0.3915    0.4819 C   0  0  1  0  0  0  0  0  0  0  0  0
    8.9730    0.2275   -0.7954 N   0  0  0  0  0  0  0  0  0  0  0  0
    8.1310    1.7219   -0.9434 S   0  0  0  0  0  6  0  0  0  0  0  0
    8.6458    2.6759    0.0984 O   0  0  0  0  0  0  0  0  0  0  0  0
    8.3977    2.2403   -2.3334 O   0  0  0  0  0  0  0  0  0  0  0  0
    6.4237    1.4434   -0.7767 C   0  0  0  0  0  0  0  0  0  0  0  0
    5.7160    1.1247   -1.9372 C   0  0  0  0  0  0  0  0  0  0  0  0
    4.3638    0.9001   -1.8467 C   0  0  0  0  0  0  0  0  0  0  0  0
    3.6568    0.9717   -0.6645 C   0  0  0  0  0  0  0  0  0  0  0  0
    2.2181    0.7214   -0.6430 C   0  0  0  0  0  0  0  0  0  0  0  0
    1.4257    1.0455   -1.7242 C   0  0  0  0  0  0  0  0  0  0  0  0
    0.0613    0.8181   -1.7287 C   0  0  0  0  0  0  0  0  0  0  0  0
   -0.5707    0.2523   -0.6421 C   0  0  0  0  0  0  0  0  0  0  0  0
   -2.0441    0.0107   -0.6531 C   0  0  0  0  0  0  0  0  0  0  0  0
   -2.7235    1.1371   -0.1387 O   0  0  0  0  0  0  0  0  0  0  0  0
   -4.1079    1.0862   -0.0739 C   0  0  0  0  0  0  0  0  0  0  0  0
   -4.8464   -0.0174   -0.4910 C   0  0  0  0  0  0  0  0  0  0  0  0
   -6.2246   -0.0298   -0.4102 C   0  0  0  0  0  0  0  0  0  0  0  0
   -6.8636    1.0752    0.0938 C   0  0  0  0  0  0  0  0  0  0  0  0
   -8.2961    1.1092    0.2085 C   0  0  0  0  0  0  0  0  0  0  0  0
   -8.8646    2.1487    0.6432 O   0  0  0  0  0  0  0  0  0  0  0  0
   -9.0991   -0.0698   -0.1818 C   0  0  0  0  0  0  0  0  0  0  0  0
   -8.7647   -1.2222    0.7322 C   0  0  0  0  0  0  0  0  0  0  0  0
   -9.9391   -1.5448    1.6511 C   0  0  0  0  0  0  0  0  0  0  0  0
  -11.1390   -1.9743    0.8215 C   0  0  0  0  0  0  0  0  0  0  0  0
  -11.4786   -0.8980   -0.1782 C   0  0  0  0  0  0  0  0  0  0  0  0
  -10.5618    0.3047   -0.0913 C   0  0  0  0  0  0  0  0  0  0  0  0
   -6.1450    2.1915    0.5172 C   0  0  0  0  0  0  0  0  0  0  0  0
   -4.7823    2.1627    0.4200 C   0  0  0  0  0  0  0  0  0  0  0  0
    0.2139   -0.0750    0.4433 C   0  0  0  0  0  0  0  0  0  0  0  0
    1.5843    0.1551    0.4439 C   0  0  0  0  0  0  0  0  0  0  0  0
    4.3758    1.2876    0.4666 C   0  0  0  0  0  0  0  0  0  0  0  0
    5.7435    1.5215    0.4155 C   0  0  0  0  0  0  0  0  0  0  0  0
    8.2367   -1.7530    0.2942 C   0  0  0  0  0  0  0  0  0  0  0  0
    7.9886   -2.4890    1.2763 O   0  0  0  0  0  0  0  0  0  0  0  0
    7.9864   -2.2431   -0.9785 O   0  0  0  0  0  0  0  0  0  0  0  0
    9.0783   -0.8195    2.9776 H   0  0  0  0  0  0  0  0  0  0  0  0
   10.0984   -2.1915    2.4752 H   0  0  0  0  0  0  0  0  0  0  0  0
   10.9094   -0.7234    3.1334 H   0  0  0  0  0  0  0  0  0  0  0  0
   10.6333    0.5351    1.1634 H   0  0  0  0  0  0  0  0  0  0  0  0
   10.7228   -1.2625   -0.8014 H   0  0  0  0  0  0  0  0  0  0  0  0
   12.0881   -1.0158    0.3029 H   0  0  0  0  0  0  0  0  0  0  0  0
   10.9395   -2.4132    0.5417 H   0  0  0  0  0  0  0  0  0  0  0  0
    8.1261    0.2488    1.0973 H   0  0  0  0  0  0  0  0  0  0  0  0
    8.7071   -0.4281   -1.5568 H   0  0  0  0  0  0  0  0  0  0  0  0
    6.2510    1.0594   -2.8978 H   0  0  0  0  0  0  0  0  0  0  0  0
    3.8075    0.6509   -2.7510 H   0  0  0  0  0  0  0  0  0  0  0  0
    1.9210    1.4899   -2.5781 H   0  0  0  0  0  0  0  0  0  0  0  0
   -0.5520    1.0835   -2.5998 H   0  0  0  0  0  0  0  0  0  0  0  0
   -2.4045   -0.0944   -1.7140 H   0  0  0  0  0  0  0  0  0  0  0  0
   -2.2799   -0.9248   -0.1535 H   0  0  0  0  0  0  0  0  0  0  0  0
   -4.2838   -0.8493   -0.8754 H   0  0  0  0  0  0  0  0  0  0  0  0
   -6.7464   -0.9055   -0.7516 H   0  0  0  0  0  0  0  0  0  0  0  0
   -8.8762   -0.3680   -1.2298 H   0  0  0  0  0  0  0  0  0  0  0  0
   -7.8735   -0.9802    1.3414 H   0  0  0  0  0  0  0  0  0  0  0  0
   -8.5839   -2.1267    0.1309 H   0  0  0  0  0  0  0  0  0  0  0  0
  -10.2082   -0.6532    2.2193 H   0  0  0  0  0  0  0  0  0  0  0  0
   -9.6770   -2.3874    2.3118 H   0  0  0  0  0  0  0  0  0  0  0  0
  -10.9106   -2.9423    0.3161 H   0  0  0  0  0  0  0  0  0  0  0  0
  -11.9791   -2.1018    1.5182 H   0  0  0  0  0  0  0  0  0  0  0  0
  -11.4272   -1.3531   -1.1917 H   0  0  0  0  0  0  0  0  0  0  0  0
  -12.5060   -0.5432   -0.0015 H   0  0  0  0  0  0  0  0  0  0  0  0
  -10.7250    0.8696    0.8362 H   0  0  0  0  0  0  0  0  0  0  0  0
  -10.7656    0.9797   -0.9414 H   0  0  0  0  0  0  0  0  0  0  0  0
   -6.6716    3.0688    0.9181 H   0  0  0  0  0  0  0  0  0  0  0  0
   -4.2334    3.0475    0.7571 H   0  0  0  0  0  0  0  0  0  0  0  0
   -0.2743   -0.5175    1.2951 H   0  0  0  0  0  0  0  0  0  0  0  0
    2.2021   -0.1018    1.2962 H   0  0  0  0  0  0  0  0  0  0  0  0
    3.8517    1.3518    1.4096 H   0  0  0  0  0  0  0  0  0  0  0  0
    6.3014    1.7710    1.3059 H   0  0  0  0  0  0  0  0  0  0  0  0
    7.6250   -3.1917   -1.0655 H   0  0  0  0  0  0  0  0  0  0  0  0
  1  2  1  0
  2  3  1  0
  2  4  1  0
  4  5  1  0
  5  6  1  0
  6  7  2  0
  6  8  2  0
  6  9  1  0
  9 10  2  0
 10 11  1  0
 11 12  2  0
 12 13  1  0
 13 14  2  0
 14 15  1  0
 15 16  2  0
 16 17  1  0
 17 18  1  0
 18 19  1  0
 19 20  2  0
 20 21  1  0
 21 22  2  0
 22 23  1  0
 23 24  2  0
 23 25  1  0
 25 26  1  0
 26 27  1  0
 27 28  1  0
 28 29  1  0
 29 30  1  0
 22 31  1  0
 31 32  2  0
 16 33  1  0
 33 34  2  0
 12 35  1  0
 35 36  2  0
  4 37  1  0
 37 38  2  0
 37 39  1  0
 36  9  1  0
 34 13  1  0
 32 19  1  0
 30 25  1  0
  1 40  1  0
  1 41  1  0
  1 42  1  0
  2 43  1  0
  3 44  1  0
  3 45  1  0
  3 46  1  0
  4 47  1  1
  5 48  1  0
 10 49  1  0
 11 50  1  0
 14 51  1  0
 15 52  1  0
 17 53  1  0
 17 54  1  0
 20 55  1  0
 21 56  1  0
 25 57  1  0
 26 58  1  0
 26 59  1  0
 27 60  1  0
 27 61  1  0
 28 62  1  0
 28 63  1  0
 29 64  1  0
 29 65  1  0
 30 66  1  0
 30 67  1  0
 31 68  1  0
 32 69  1  0
 33 70  1  0
 34 71  1  0
 35 72  1  0
 36 73  1  0
 39 74  1  0
M  END
$$$$
