
     RDKit          3D

 81 86  0  0  0  0  0  0  0  0999 V2000
   12.9248   -1.0539    1.6050 C   0  0  0  0  0  0  0  0  0  0  0  0
   11.7577   -1.7515    2.0326 O   0  0  0  0  0  0  0  0  0  0  0  0
   10.5170   -1.3475    1.5925 C   0  0  0  0  0  0  0  0  0  0  0  0
   10.3563   -0.2958    0.7541 C   0  0  0  0  0  0  0  0  0  0  0  0
    9.0886    0.0855    0.3290 C   0  0  0  0  0  0  0  0  0  0  0  0
    7.9715   -0.5851    0.7411 C   0  0  0  0  0  0  0  0  0  0  0  0
    6.6450   -0.2636    0.3260 N   0  0  0  0  0  0  0  0  0  0  0  0
    6.3476    0.4854   -0.8099 C   0  0  0  0  0  0  0  0  0  0  0  0
    7.2699    0.8961   -1.6659 N   0  0  0  0  0  0  0  0  0  0  0  0
    6.9598    1.6117   -2.7539 C   0  0  0  0  0  0  0  0  0  0  0  0
    5.6289    1.9241   -2.9770 C   0  0  0  0  0  0  0  0  0  0  0  0
    4.6388    1.5067   -2.0955 C   0  0  0  0  0  0  0  0  0  0  0  0
    3.3329    1.8314   -2.3448 O   0  0  0  0  0  0  0  0  0  0  0  0
    2.2160    1.5005   -1.6254 C   0  0  0  0  0  0  0  0  0  0  0  0
    1.4857    2.5216   -1.0607 C   0  0  0  0  0  0  0  0  0  0  0  0
    0.3503    2.2651   -0.3244 C   0  0  0  0  0  0  0  0  0  0  0  0
   -0.0623    0.9611   -0.1500 C   0  0  0  0  0  0  0  0  0  0  0  0
   -1.2412    0.7235    0.6044 N   0  0  0  0  0  0  0  0  0  0  0  0
   -2.5380    0.6512   -0.0334 C   0  0  0  0  0  0  0  0  0  0  0  0
   -2.5094    0.8131   -1.2768 O   0  0  0  0  0  0  0  0  0  0  0  0
   -3.7087    0.4151    0.7212 N   0  0  0  0  0  0  0  0  0  0  0  0
   -4.9625    0.3340    0.1160 C   0  0  0  0  0  0  0  0  0  0  0  0
   -5.2412    0.4594   -1.2269 C   0  0  0  0  0  0  0  0  0  0  0  0
   -6.6116    0.3018   -1.3456 C   0  0  0  0  0  0  0  0  0  0  0  0
   -7.3645    0.3573   -2.6468 C   0  0  0  0  0  0  0  0  0  0  0  0
   -8.8340    0.1445   -2.3547 C   0  0  0  0  0  0  0  0  0  0  0  0
   -6.9306   -0.7918   -3.5422 C   0  0  0  0  0  0  0  0  0  0  0  0
   -7.1744    1.6933   -3.3373 C   0  0  0  0  0  0  0  0  0  0  0  0
   -7.0664    0.0972   -0.1055 N   0  0  0  0  0  0  0  0  0  0  0  0
   -6.1089    0.1100    0.7922 N   0  0  0  0  0  0  0  0  0  0  0  0
   -6.2805   -0.0788    2.1793 C   0  0  0  0  0  0  0  0  0  0  0  0
   -6.9222   -1.2185    2.6710 C   0  0  0  0  0  0  0  0  0  0  0  0
   -7.0906   -1.4015    4.0266 C   0  0  0  0  0  0  0  0  0  0  0  0
   -6.6382   -0.4780    4.9538 C   0  0  0  0  0  0  0  0  0  0  0  0
   -6.8251   -0.6841    6.4146 C   0  0  0  0  0  0  0  0  0  0  0  0
   -6.0054    0.6451    4.4622 C   0  0  0  0  0  0  0  0  0  0  0  0
   -5.8283    0.8432    3.0925 C   0  0  0  0  0  0  0  0  0  0  0  0
    0.6677   -0.0804   -0.7166 C   0  0  0  0  0  0  0  0  0  0  0  0
    0.2245   -1.3763   -0.5331 C   0  0  0  0  0  0  0  0  0  0  0  0
    0.9539   -2.4140   -1.1128 C   0  0  0  0  0  0  0  0  0  0  0  0
    2.0875   -2.1782   -1.8519 C   0  0  0  0  0  0  0  0  0  0  0  0
    2.5019   -0.8681   -2.0145 C   0  0  0  0  0  0  0  0  0  0  0  0
    1.8128    0.1946   -1.4583 C   0  0  0  0  0  0  0  0  0  0  0  0
    5.0257    0.7974   -1.0339 N   0  0  0  0  0  0  0  0  0  0  0  0
    8.1468   -1.6802    1.6157 C   0  0  0  0  0  0  0  0  0  0  0  0
    9.4014   -2.0323    2.0166 C   0  0  0  0  0  0  0  0  0  0  0  0
   12.9899   -0.1259    2.2106 H   0  0  0  0  0  0  0  0  0  0  0  0
   13.7981   -1.7126    1.8122 H   0  0  0  0  0  0  0  0  0  0  0  0
   12.9278   -0.8347    0.5272 H   0  0  0  0  0  0  0  0  0  0  0  0
   11.2101    0.2581    0.4062 H   0  0  0  0  0  0  0  0  0  0  0  0
    9.0440    0.9327   -0.3204 H   0  0  0  0  0  0  0  0  0  0  0  0
    5.8504   -0.6187    0.9235 H   0  0  0  0  0  0  0  0  0  0  0  0
    7.7444    1.9371   -3.4440 H   0  0  0  0  0  0  0  0  0  0  0  0
    5.3151    2.4965   -3.8344 H   0  0  0  0  0  0  0  0  0  0  0  0
    1.7676    3.5627   -1.1677 H   0  0  0  0  0  0  0  0  0  0  0  0
   -0.2173    3.0998    0.1178 H   0  0  0  0  0  0  0  0  0  0  0  0
   -1.2320    0.5929    1.6324 H   0  0  0  0  0  0  0  0  0  0  0  0
   -3.6118    0.2972    1.7481 H   0  0  0  0  0  0  0  0  0  0  0  0
   -4.5956    0.6408   -2.0710 H   0  0  0  0  0  0  0  0  0  0  0  0
   -9.0478   -0.9389   -2.2402 H   0  0  0  0  0  0  0  0  0  0  0  0
   -9.1181    0.6105   -1.3687 H   0  0  0  0  0  0  0  0  0  0  0  0
   -9.4714    0.5448   -3.1905 H   0  0  0  0  0  0  0  0  0  0  0  0
   -7.4682   -1.7145   -3.2245 H   0  0  0  0  0  0  0  0  0  0  0  0
   -7.2407   -0.5387   -4.5675 H   0  0  0  0  0  0  0  0  0  0  0  0
   -5.8450   -0.9997   -3.4420 H   0  0  0  0  0  0  0  0  0  0  0  0
   -8.1438    2.1373   -3.6723 H   0  0  0  0  0  0  0  0  0  0  0  0
   -6.5339    1.5220   -4.2526 H   0  0  0  0  0  0  0  0  0  0  0  0
   -6.6436    2.4277   -2.7271 H   0  0  0  0  0  0  0  0  0  0  0  0
   -7.2763   -1.9419    1.9346 H   0  0  0  0  0  0  0  0  0  0  0  0
   -7.5929   -2.2972    4.3732 H   0  0  0  0  0  0  0  0  0  0  0  0
   -7.6503   -0.0469    6.8202 H   0  0  0  0  0  0  0  0  0  0  0  0
   -7.1648   -1.7379    6.5546 H   0  0  0  0  0  0  0  0  0  0  0  0
   -5.8635   -0.4893    6.9283 H   0  0  0  0  0  0  0  0  0  0  0  0
   -5.6258    1.4098    5.1257 H   0  0  0  0  0  0  0  0  0  0  0  0
   -5.3356    1.7174    2.6919 H   0  0  0  0  0  0  0  0  0  0  0  0
   -0.6673   -1.5751    0.0474 H   0  0  0  0  0  0  0  0  0  0  0  0
    0.5758   -3.4259   -0.9487 H   0  0  0  0  0  0  0  0  0  0  0  0
    2.6136   -3.0216   -2.2781 H   0  0  0  0  0  0  0  0  0  0  0  0
    3.3768   -0.6864   -2.6012 H   0  0  0  0  0  0  0  0  0  0  0  0
    7.2563   -2.1908    1.9256 H   0  0  0  0  0  0  0  0  0  0  0  0
    9.5068   -2.8810    2.6904 H   0  0  0  0  0  0  0  0  0  0  0  0
  1  2  1  0
  2  3  1  0
  3  4  2  0
  4  5  1  0
  5  6  2  0
  6  7  1  0
  7  8  1  0
  8  9  2  0
  9 10  1  0
 10 11  2  0
 11 12  1  0
 12 13  1  0
 13 14  1  0
 14 15  2  0
 15 16  1  0
 16 17  2  0
 17 18  1  0
 18 19  1  0
 19 20  2  0
 19 21  1  0
 21 22  1  0
 22 23  2  0
 23 24  1  0
 24 25  1  0
 25 26  1  0
 25 27  1  0
 25 28  1  0
 24 29  2  0
 29 30  1  0
 30 31  1  0
 31 32  2  0
 32 33  1  0
 33 34  2  0
 34 35  1  0
 34 36  1  0
 36 37  2  0
 17 38  1  0
 38 39  2  0
 39 40  1  0
 40 41  2  0
 41 42  1  0
 42 43  2  0
 12 44  2  0
  6 45  1  0
 45 46  2  0
 46  3  1  0
 44  8  1  0
 43 14  1  0
 30 22  1  0
 37 31  1  0
 43 38  1  0
  1 47  1  0
  1 48  1  0
  1 49  1  0
  4 50  1  0
  5 51  1  0
  7 52  1  0
 10 53  1  0
 11 54  1  0
 15 55  1  0
 16 56  1  0
 18 57  1  0
 21 58  1  0
 23 59  1  0
 26 60  1  0
 26 61  1  0
 26 62  1  0
 27 63  1  0
 27 64  1  0
 27 65  1  0
 28 66  1  0
 28 67  1  0
 28 68  1  0
 32 69  1  0
 33 70  1  0
 35 71  1  0
 35 72  1  0
 35 73  1  0
 36 74  1  0
 37 75  1  0
 39 76  1  0
 40 77  1  0
 41 78  1  0
 42 79  1  0
 45 80  1  0
 46 81  1  0
M  END
$$$$
