
     RDKit          3D

 50 50  0  0  0  0  0  0  0  0999 V2000
   -2.8573   -1.8961   -1.5909 C   0  0  0  0  0  0  0  0  0  0  0  0
   -3.4824   -1.2315   -0.4173 C   0  0  0  0  0  0  0  0  0  0  0  0
   -2.8573   -0.4331    0.4162 C   0  0  0  0  0  0  0  0  0  0  0  0
   -1.4869   -0.0804    0.3558 C   0  0  0  0  0  0  0  0  0  0  0  0
   -0.5173   -0.3786   -0.4691 C   0  0  0  0  0  0  0  0  0  0  0  0
    0.8575    0.0862   -0.3337 C   0  0  0  0  0  0  0  0  0  0  0  0
    1.4044    0.9325    0.7287 C   0  0  0  0  0  0  0  0  0  0  0  0
    1.7568   -0.3047   -1.2949 C   0  0  0  0  0  0  0  0  0  0  0  0
    3.1138    0.0759   -1.2472 C   0  0  0  0  0  0  0  0  0  0  0  0
    4.2788    0.4023   -1.2067 C   0  0  0  0  0  0  0  0  0  0  0  0
    5.6133    0.7857   -1.1445 C   0  0  0  0  0  0  0  0  0  0  0  0
    6.2579    1.5934   -0.0921 C   0  0  0  0  0  0  0  0  0  0  0  0
    6.4636    0.3979   -2.1526 C   0  0  0  0  0  0  0  0  0  0  0  0
    7.8368    0.7177   -2.2133 C   0  0  0  0  0  0  0  0  0  0  0  0
    8.5309    0.2649   -3.2021 O   0  0  0  0  0  0  0  0  0  0  0  0
    8.5654    1.4803   -1.3264 O   0  0  0  0  0  0  0  0  0  0  0  0
   -3.7634    0.1634    1.4631 C   0  0  0  0  0  0  0  0  0  0  0  0
   -3.1457    1.1864    2.2995 C   0  0  0  0  0  0  0  0  0  0  0  0
   -4.9309    0.8201    0.7173 C   0  0  0  0  0  0  0  0  0  0  0  0
   -4.3473   -1.0038    2.2462 C   0  0  0  0  0  0  0  0  0  0  0  0
   -5.1911   -1.8540    1.3313 C   0  0  0  0  0  0  0  0  0  0  0  0
   -4.8837   -1.6705   -0.1078 C   0  0  0  0  0  0  0  0  0  0  0  0
   -2.5201   -1.2289   -2.3794 H   0  0  0  0  0  0  0  0  0  0  0  0
   -2.1211   -2.6640   -1.3429 H   0  0  0  0  0  0  0  0  0  0  0  0
   -3.7362   -2.4421   -2.1127 H   0  0  0  0  0  0  0  0  0  0  0  0
   -1.1093    0.5620    1.1962 H   0  0  0  0  0  0  0  0  0  0  0  0
   -0.7300   -1.0031   -1.2934 H   0  0  0  0  0  0  0  0  0  0  0  0
    2.1125    0.3552    1.3976 H   0  0  0  0  0  0  0  0  0  0  0  0
    0.5959    1.3050    1.3762 H   0  0  0  0  0  0  0  0  0  0  0  0
    1.8824    1.8578    0.3220 H   0  0  0  0  0  0  0  0  0  0  0  0
    1.3308   -0.9147   -2.0712 H   0  0  0  0  0  0  0  0  0  0  0  0
    3.4181   -0.4610   -2.5165 H   0  0  0  0  0  0  0  0  0  0  0  0
    4.0034    0.9276    0.0936 H   0  0  0  0  0  0  0  0  0  0  0  0
    7.0732    0.9426    0.3185 H   0  0  0  0  0  0  0  0  0  0  0  0
    5.5555    1.8283    0.7440 H   0  0  0  0  0  0  0  0  0  0  0  0
    6.7268    2.5120   -0.4672 H   0  0  0  0  0  0  0  0  0  0  0  0
    5.9672   -0.1911   -2.9556 H   0  0  0  0  0  0  0  0  0  0  0  0
    9.2734    2.1185   -1.6987 H   0  0  0  0  0  0  0  0  0  0  0  0
   -3.1286    0.7997    3.3768 H   0  0  0  0  0  0  0  0  0  0  0  0
   -2.1880    1.5389    1.9881 H   0  0  0  0  0  0  0  0  0  0  0  0
   -3.8814    2.0781    2.3694 H   0  0  0  0  0  0  0  0  0  0  0  0
   -4.7298    0.8206   -0.3665 H   0  0  0  0  0  0  0  0  0  0  0  0
   -5.8593    0.2632    0.9173 H   0  0  0  0  0  0  0  0  0  0  0  0
   -5.0721    1.8996    1.0615 H   0  0  0  0  0  0  0  0  0  0  0  0
   -3.4288   -1.6442    2.4453 H   0  0  0  0  0  0  0  0  0  0  0  0
   -4.7888   -0.7613    3.1915 H   0  0  0  0  0  0  0  0  0  0  0  0
   -5.1113   -2.9268    1.6862 H   0  0  0  0  0  0  0  0  0  0  0  0
   -6.2490   -1.6003    1.5078 H   0  0  0  0  0  0  0  0  0  0  0  0
   -4.8632   -2.7807   -0.5002 H   0  0  0  0  0  0  0  0  0  0  0  0
   -5.6383   -1.2450   -0.7674 H   0  0  0  0  0  0  0  0  0  0  0  0
  1  2  1  0
  2  3  2  0
  3  4  1  0
  4  5  2  0
  5  6  1  0
  6  7  1  0
  6  8  2  0
  8  9  1  0
  9 10  2  0
 10 11  1  0
 11 12  1  0
 11 13  2  0
 13 14  1  0
 14 15  2  0
 14 16  1  0
  3 17  1  0
 17 18  1  0
 17 19  1  0
 17 20  1  0
 20 21  1  0
 21 22  1  0
 22  2  1  0
  1 23  1  0
  1 24  1  0
  1 25  1  0
  4 26  1  0
  5 27  1  0
  7 28  1  0
  7 29  1  0
  7 30  1  0
  8 31  1  0
  9 32  1  0
 10 33  1  0
 12 34  1  0
 12 35  1  0
 12 36  1  0
 13 37  1  0
 16 38  1  0
 18 39  1  0
 18 40  1  0
 18 41  1  0
 19 42  1  0
 19 43  1  0
 19 44  1  0
 20 45  1  0
 20 46  1  0
 21 47  1  0
 21 48  1  0
 22 49  1  0
 22 50  1  0
M  END
$$$$
