
     RDKit          3D

 69 71  0  0  0  0  0  0  0  0999 V2000
   -8.3458   -2.1485    3.1998 C   0  0  0  0  0  0  0  0  0  0  0  0
   -6.9409   -1.6749    2.9454 C   0  0  0  0  0  0  0  0  0  0  0  0
   -6.5630   -0.3797    3.2225 C   0  0  0  0  0  0  0  0  0  0  0  0
   -5.2553    0.0652    2.9866 C   0  0  0  0  0  0  0  0  0  0  0  0
   -4.8802    1.4497    3.2910 C   0  0  0  0  0  0  0  0  0  0  0  0
   -4.3230   -0.7911    2.4713 C   0  0  0  0  0  0  0  0  0  0  0  0
   -2.9920   -0.3633    2.2240 N   0  0  0  0  0  0  0  0  0  0  0  0
   -2.6017    0.1947    0.9623 C   0  0  0  0  0  0  0  0  0  0  0  0
   -3.4865    0.2788    0.1095 O   0  0  0  0  0  0  0  0  0  0  0  0
   -1.2695    0.6229    0.7180 N   0  0  0  0  0  0  0  0  0  0  0  0
   -0.7986    1.1976   -0.4844 C   0  0  0  0  0  0  0  0  0  0  0  0
   -1.7316    1.8292   -1.3158 C   0  0  0  0  0  0  0  0  0  0  0  0
   -1.3200    2.3907   -2.5040 C   0  0  0  0  0  0  0  0  0  0  0  0
   -2.2486    3.0221   -3.3375 C   0  0  0  0  0  0  0  0  0  0  0  0
   -1.8999    3.6024   -4.5371 C   0  0  0  0  0  0  0  0  0  0  0  0
   -0.5675    3.5339   -4.8911 C   0  0  0  0  0  0  0  0  0  0  0  0
    0.3554    2.9169   -4.0826 C   0  0  0  0  0  0  0  0  0  0  0  0
   -0.0133    2.3428   -2.8870 C   0  0  0  0  0  0  0  0  0  0  0  0
    0.8815    1.7171   -2.0530 C   0  0  0  0  0  0  0  0  0  0  0  0
    0.5268    1.1260   -0.8324 C   0  0  0  0  0  0  0  0  0  0  0  0
    1.5274    0.4459   -0.0298 C   0  0  0  0  0  0  0  0  0  0  0  0
    1.2410   -0.2023    1.0068 O   0  0  0  0  0  0  0  0  0  0  0  0
    2.9277    0.4443   -0.3323 N   0  0  0  0  0  0  0  0  0  0  0  0
    3.8988   -0.2513    0.5004 C   0  0  2  0  0  0  0  0  0  0  0  0
    4.7919    0.7836    1.0839 C   0  0  0  0  0  0  0  0  0  0  0  0
    5.7498    0.5038    1.8630 O   0  0  0  0  0  0  0  0  0  0  0  0
    4.6328    2.1463    0.8095 O   0  0  0  0  0  0  0  0  0  0  0  0
    4.6843   -1.2815   -0.2383 C   0  0  1  0  0  0  0  0  0  0  0  0
    3.7646   -2.4205   -0.6558 C   0  0  0  0  0  0  0  0  0  0  0  0
    5.4242   -0.8083   -1.2937 O   0  0  0  0  0  0  0  0  0  0  0  0
    6.8050   -1.0162   -1.1209 C   0  0  0  0  0  0  0  0  0  0  0  0
    7.5256    0.2842   -1.3197 C   0  0  0  0  0  0  0  0  0  0  0  0
    7.3160   -1.9904   -2.1907 C   0  0  0  0  0  0  0  0  0  0  0  0
   -4.6753   -2.0895    2.1862 C   0  0  0  0  0  0  0  0  0  0  0  0
   -3.6906   -3.0261    1.6328 C   0  0  0  0  0  0  0  0  0  0  0  0
   -5.9862   -2.5229    2.4262 C   0  0  0  0  0  0  0  0  0  0  0  0
   -8.3879   -3.2471    3.0540 H   0  0  0  0  0  0  0  0  0  0  0  0
   -8.6368   -1.8811    4.2344 H   0  0  0  0  0  0  0  0  0  0  0  0
   -8.9719   -1.6879    2.4219 H   0  0  0  0  0  0  0  0  0  0  0  0
   -7.3147    0.2814    3.6301 H   0  0  0  0  0  0  0  0  0  0  0  0
   -4.5452    1.9976    2.3850 H   0  0  0  0  0  0  0  0  0  0  0  0
   -4.1099    1.4667    4.0937 H   0  0  0  0  0  0  0  0  0  0  0  0
   -5.7514    1.9878    3.6847 H   0  0  0  0  0  0  0  0  0  0  0  0
   -2.2579   -0.4432    2.9577 H   0  0  0  0  0  0  0  0  0  0  0  0
   -0.6384    0.4951    1.5684 H   0  0  0  0  0  0  0  0  0  0  0  0
   -2.7777    1.9269   -1.0837 H   0  0  0  0  0  0  0  0  0  0  0  0
   -3.2806    3.0453   -3.0086 H   0  0  0  0  0  0  0  0  0  0  0  0
   -2.6091    4.0865   -5.1767 H   0  0  0  0  0  0  0  0  0  0  0  0
   -0.2519    3.9853   -5.8404 H   0  0  0  0  0  0  0  0  0  0  0  0
    1.3792    2.8790   -4.3824 H   0  0  0  0  0  0  0  0  0  0  0  0
    1.9087    1.6736   -2.3459 H   0  0  0  0  0  0  0  0  0  0  0  0
    3.2565    0.9525   -1.1625 H   0  0  0  0  0  0  0  0  0  0  0  0
    3.4095   -0.7545    1.3598 H   0  0  0  0  0  0  0  0  0  0  0  0
    5.3648    2.8233    1.0167 H   0  0  0  0  0  0  0  0  0  0  0  0
    5.4026   -1.7224    0.5003 H   0  0  0  0  0  0  0  0  0  0  0  0
    3.2657   -2.8758    0.2151 H   0  0  0  0  0  0  0  0  0  0  0  0
    4.3250   -3.2225   -1.1787 H   0  0  0  0  0  0  0  0  0  0  0  0
    3.0028   -2.0455   -1.3808 H   0  0  0  0  0  0  0  0  0  0  0  0
    6.9704   -1.5102   -0.1650 H   0  0  0  0  0  0  0  0  0  0  0  0
    6.9053    0.8804   -2.0498 H   0  0  0  0  0  0  0  0  0  0  0  0
    7.6026    0.8125   -0.3479 H   0  0  0  0  0  0  0  0  0  0  0  0
    8.5547    0.1494   -1.7186 H   0  0  0  0  0  0  0  0  0  0  0  0
    6.7371   -1.8930   -3.1234 H   0  0  0  0  0  0  0  0  0  0  0  0
    8.3730   -1.7236   -2.3724 H   0  0  0  0  0  0  0  0  0  0  0  0
    7.3137   -3.0342   -1.7930 H   0  0  0  0  0  0  0  0  0  0  0  0
   -4.2355   -3.8563    1.0991 H   0  0  0  0  0  0  0  0  0  0  0  0
   -3.1604   -2.4808    0.8012 H   0  0  0  0  0  0  0  0  0  0  0  0
   -3.0066   -3.4611    2.3599 H   0  0  0  0  0  0  0  0  0  0  0  0
   -6.2988   -3.5358    2.2147 H   0  0  0  0  0  0  0  0  0  0  0  0
  1  2  1  0
  2  3  2  0
  3  4  1  0
  4  5  1  0
  4  6  2  0
  6  7  1  0
  7  8  1  0
  8  9  2  0
  8 10  1  0
 10 11  1  0
 11 12  2  0
 12 13  1  0
 13 14  2  0
 14 15  1  0
 15 16  2  0
 16 17  1  0
 17 18  2  0
 18 19  1  0
 19 20  2  0
 20 21  1  0
 21 22  2  0
 21 23  1  0
 23 24  1  0
 24 25  1  0
 25 26  2  0
 25 27  1  0
 24 28  1  0
 28 29  1  0
 28 30  1  0
 30 31  1  0
 31 32  1  0
 31 33  1  0
  6 34  1  0
 34 35  1  0
 34 36  2  0
 36  2  1  0
 20 11  1  0
 18 13  1  0
  1 37  1  0
  1 38  1  0
  1 39  1  0
  3 40  1  0
  5 41  1  0
  5 42  1  0
  5 43  1  0
  7 44  1  0
 10 45  1  0
 12 46  1  0
 14 47  1  0
 15 48  1  0
 16 49  1  0
 17 50  1  0
 19 51  1  0
 23 52  1  0
 24 53  1  1
 27 54  1  0
 28 55  1  1
 29 56  1  0
 29 57  1  0
 29 58  1  0
 31 59  1  0
 32 60  1  0
 32 61  1  0
 32 62  1  0
 33 63  1  0
 33 64  1  0
 33 65  1  0
 35 66  1  0
 35 67  1  0
 35 68  1  0
 36 69  1  0
M  END
$$$$
