
     RDKit          3D

 49 51  0  0  0  0  0  0  0  0999 V2000
    0.9246   -1.9144    1.0071 C   0  0  0  0  0  0  0  0  0  0  0  0
    1.3462   -0.8873    0.0775 N   0  0  0  0  0  0  0  0  0  0  0  0
    2.5864   -0.8890   -0.4768 C   0  0  0  0  0  0  0  0  0  0  0  0
    3.3602   -1.8256   -0.1471 O   0  0  0  0  0  0  0  0  0  0  0  0
    2.9590    0.1030   -1.3597 C   0  0  0  0  0  0  0  0  0  0  0  0
    4.2525    0.0768   -1.9202 O   0  0  0  0  0  0  0  0  0  0  0  0
    5.3121    0.1370   -1.0241 C   0  0  0  0  0  0  0  0  0  0  0  0
    6.2182   -0.9144   -0.9955 C   0  0  0  0  0  0  0  0  0  0  0  0
    7.2599   -0.8598   -0.1175 C   0  0  0  0  0  0  0  0  0  0  0  0
    7.4380    0.2081    0.7405 C   0  0  0  0  0  0  0  0  0  0  0  0
    8.4627    0.2590    1.6022 F   0  0  0  0  0  0  0  0  0  0  0  0
    6.5366    1.2593    0.7154 C   0  0  0  0  0  0  0  0  0  0  0  0
    5.4638    1.2146   -0.1810 C   0  0  0  0  0  0  0  0  0  0  0  0
    4.5746    2.2254   -0.2237 F   0  0  0  0  0  0  0  0  0  0  0  0
    2.0690    1.1057   -1.6849 C   0  0  0  0  0  0  0  0  0  0  0  0
    0.8187    1.0821   -1.1079 C   0  0  0  0  0  0  0  0  0  0  0  0
   -0.1108    2.0468   -1.3892 C   0  0  0  0  0  0  0  0  0  0  0  0
   -1.3349    1.9836   -0.7964 N   0  0  0  0  0  0  0  0  0  0  0  0
   -1.6654    1.0036    0.0591 C   0  0  0  0  0  0  0  0  0  0  0  0
   -2.9405    0.9523    0.6657 N   0  0  0  0  0  0  0  0  0  0  0  0
   -3.9804    0.2265    0.0040 C   0  0  0  0  0  0  0  0  0  0  0  0
   -3.8138   -1.2465   -0.0735 C   0  0  0  0  0  0  0  0  0  0  0  0
   -3.7451   -1.9774    1.2196 C   0  0  0  0  0  0  0  0  0  0  0  0
   -2.7207   -1.6003    2.0372 O   0  0  0  0  0  0  0  0  0  0  0  0
   -5.3215    0.6498    0.5594 C   0  0  0  0  0  0  0  0  0  0  0  0
   -6.4667   -0.0696   -0.0870 C   0  0  0  0  0  0  0  0  0  0  0  0
   -6.5591    0.1270   -1.4418 O   0  0  0  0  0  0  0  0  0  0  0  0
   -0.7602    0.0668    0.3312 N   0  0  0  0  0  0  0  0  0  0  0  0
    0.4688    0.0797   -0.2276 C   0  0  0  0  0  0  0  0  0  0  0  0
    1.0340   -1.5650    2.0686 H   0  0  0  0  0  0  0  0  0  0  0  0
   -0.1218   -2.2340    0.8488 H   0  0  0  0  0  0  0  0  0  0  0  0
    1.5608   -2.8172    0.9040 H   0  0  0  0  0  0  0  0  0  0  0  0
    6.1253   -1.7820   -1.6506 H   0  0  0  0  0  0  0  0  0  0  0  0
    7.9659   -1.7000   -0.1091 H   0  0  0  0  0  0  0  0  0  0  0  0
    6.6650    2.1096    1.3874 H   0  0  0  0  0  0  0  0  0  0  0  0
    2.3549    1.8883   -2.3778 H   0  0  0  0  0  0  0  0  0  0  0  0
    0.1535    2.8352   -2.0765 H   0  0  0  0  0  0  0  0  0  0  0  0
   -3.0849    1.4493    1.5847 H   0  0  0  0  0  0  0  0  0  0  0  0
   -3.9766    0.5967   -1.0645 H   0  0  0  0  0  0  0  0  0  0  0  0
   -4.6055   -1.6522   -0.7309 H   0  0  0  0  0  0  0  0  0  0  0  0
   -2.8503   -1.4319   -0.6345 H   0  0  0  0  0  0  0  0  0  0  0  0
   -4.7152   -1.8613    1.7554 H   0  0  0  0  0  0  0  0  0  0  0  0
   -3.6817   -3.0756    0.9575 H   0  0  0  0  0  0  0  0  0  0  0  0
   -3.0545   -1.0817    2.8238 H   0  0  0  0  0  0  0  0  0  0  0  0
   -5.4338    1.7386    0.2794 H   0  0  0  0  0  0  0  0  0  0  0  0
   -5.3883    0.6102    1.6459 H   0  0  0  0  0  0  0  0  0  0  0  0
   -6.4386   -1.1481    0.2054 H   0  0  0  0  0  0  0  0  0  0  0  0
   -7.4064    0.3266    0.3695 H   0  0  0  0  0  0  0  0  0  0  0  0
   -5.7341    0.0752   -1.9516 H   0  0  0  0  0  0  0  0  0  0  0  0
  1  2  1  0
  2  3  1  0
  3  4  2  0
  3  5  1  0
  5  6  1  0
  6  7  1  0
  7  8  2  0
  8  9  1  0
  9 10  2  0
 10 11  1  0
 10 12  1  0
 12 13  2  0
 13 14  1  0
  5 15  2  0
 15 16  1  0
 16 17  2  0
 17 18  1  0
 18 19  2  0
 19 20  1  0
 20 21  1  0
 21 22  1  0
 22 23  1  0
 23 24  1  0
 21 25  1  0
 25 26  1  0
 26 27  1  0
 19 28  1  0
 28 29  2  0
 29  2  1  0
 13  7  1  0
 29 16  1  0
  1 30  1  0
  1 31  1  0
  1 32  1  0
  8 33  1  0
  9 34  1  0
 12 35  1  0
 15 36  1  0
 17 37  1  0
 20 38  1  0
 21 39  1  0
 22 40  1  0
 22 41  1  0
 23 42  1  0
 23 43  1  0
 24 44  1  0
 25 45  1  0
 25 46  1  0
 26 47  1  0
 26 48  1  0
 27 49  1  0
M  END
$$$$
