
     RDKit          3D

 34 36  0  0  0  0  0  0  0  0999 V2000
   -5.9432   -0.5339   -1.7700 C   0  0  0  0  0  0  0  0  0  0  0  0
   -4.8458   -0.0652   -0.8807 C   0  0  0  0  0  0  0  0  0  0  0  0
   -5.1378    0.6852    0.2392 C   0  0  0  0  0  0  0  0  0  0  0  0
   -4.1299    1.1256    1.0716 C   0  0  0  0  0  0  0  0  0  0  0  0
   -2.7953    0.8461    0.8364 C   0  0  0  0  0  0  0  0  0  0  0  0
   -1.8404    1.2638    1.6257 O   0  0  0  0  0  0  0  0  0  0  0  0
   -0.5509    0.9986    1.4060 C   0  0  0  0  0  0  0  0  0  0  0  0
    0.2960    1.4383    2.2133 O   0  0  0  0  0  0  0  0  0  0  0  0
   -0.1697    0.2653    0.3258 C   0  0  0  0  0  0  0  0  0  0  0  0
    1.2055   -0.0717    0.0075 C   0  0  0  0  0  0  0  0  0  0  0  0
    1.3497   -0.7703   -1.0539 O   0  0  0  0  0  0  0  0  0  0  0  0
    2.3505    0.2833    0.7279 N   0  0  0  0  0  0  0  0  0  0  0  0
    3.6627   -0.0828    0.3552 C   0  0  0  0  0  0  0  0  0  0  0  0
    4.7067    0.3599    1.1962 C   0  0  0  0  0  0  0  0  0  0  0  0
    6.0277    0.0766    0.9531 C   0  0  0  0  0  0  0  0  0  0  0  0
    6.4116   -0.6646   -0.1387 C   0  0  0  0  0  0  0  0  0  0  0  0
    8.1106   -1.0211   -0.4390 Cl  0  0  0  0  0  0  0  0  0  0  0  0
    5.4177   -1.1057   -0.9697 C   0  0  0  0  0  0  0  0  0  0  0  0
    4.0634   -0.8149   -0.7200 C   0  0  0  0  0  0  0  0  0  0  0  0
   -1.1770   -0.1946   -0.5366 C   0  0  0  0  0  0  0  0  0  0  0  0
   -2.4952    0.0975   -0.2794 C   0  0  0  0  0  0  0  0  0  0  0  0
   -3.5188   -0.3487   -1.1230 C   0  0  0  0  0  0  0  0  0  0  0  0
   -6.4572   -1.4047   -1.2741 H   0  0  0  0  0  0  0  0  0  0  0  0
   -5.5624   -0.8964   -2.7243 H   0  0  0  0  0  0  0  0  0  0  0  0
   -6.6934    0.2727   -1.8440 H   0  0  0  0  0  0  0  0  0  0  0  0
   -6.1815    0.9137    0.4386 H   0  0  0  0  0  0  0  0  0  0  0  0
   -4.3650    1.7157    1.9514 H   0  0  0  0  0  0  0  0  0  0  0  0
    2.2091    0.8627    1.6050 H   0  0  0  0  0  0  0  0  0  0  0  0
    4.4472    0.9464    2.0666 H   0  0  0  0  0  0  0  0  0  0  0  0
    6.8224    0.4223    1.6068 H   0  0  0  0  0  0  0  0  0  0  0  0
    5.6834   -1.6899   -1.8355 H   0  0  0  0  0  0  0  0  0  0  0  0
    3.3330   -1.1950   -1.4174 H   0  0  0  0  0  0  0  0  0  0  0  0
   -0.9541   -0.7856   -1.4196 H   0  0  0  0  0  0  0  0  0  0  0  0
   -3.2796   -0.9284   -1.9863 H   0  0  0  0  0  0  0  0  0  0  0  0
  1  2  1  0
  2  3  2  0
  3  4  1  0
  4  5  2  0
  5  6  1  0
  6  7  1  0
  7  8  2  0
  7  9  1  0
  9 10  1  0
 10 11  2  0
 10 12  1  0
 12 13  1  0
 13 14  2  0
 14 15  1  0
 15 16  2  0
 16 17  1  0
 16 18  1  0
 18 19  2  0
  9 20  2  0
 20 21  1  0
 21 22  2  0
 22  2  1  0
 21  5  1  0
 19 13  1  0
  1 23  1  0
  1 24  1  0
  1 25  1  0
  3 26  1  0
  4 27  1  0
 12 28  1  0
 14 29  1  0
 15 30  1  0
 18 31  1  0
 19 32  1  0
 20 33  1  0
 22 34  1  0
M  END
$$$$
