
     RDKit          3D

 44 46  0  0  0  0  0  0  0  0999 V2000
    0.6925    0.0000    0.0000 Cl  0  0  0  0  0  0  0  0  0  0  0  0
   -5.2827   -1.9560   -0.4089 C   0  0  0  0  0  0  0  0  0  0  0  0
   -4.1645   -2.7278   -0.6049 C   0  0  0  0  0  0  0  0  0  0  0  0
   -2.8972   -2.2279   -0.3560 C   0  0  0  0  0  0  0  0  0  0  0  0
   -2.6801   -0.9153    0.1074 C   0  0  0  0  0  0  0  0  0  0  0  0
   -1.3826   -0.4440    0.3289 N   0  0  0  0  0  0  0  0  0  0  0  0
   -0.3153   -1.4342   -0.0273 C   0  0  0  0  0  0  0  0  0  0  0  0
    1.0422   -0.9109    0.1614 C   0  0  0  0  0  0  0  0  0  0  0  0
    1.7613   -1.0942    1.3511 C   0  0  0  0  0  0  0  0  0  0  0  0
    3.0375   -0.6073    1.5268 C   0  0  0  0  0  0  0  0  0  0  0  0
    3.6625    0.0925    0.5132 C   0  0  0  0  0  0  0  0  0  0  0  0
    4.9461    0.5923    0.6658 C   0  0  0  0  0  0  0  0  0  0  0  0
    5.5095    1.2751   -0.3718 C   0  0  0  0  0  0  0  0  0  0  0  0
    4.8537    1.4887   -1.5677 C   0  0  0  0  0  0  0  0  0  0  0  0
    3.5941    0.9921   -1.7030 C   0  0  0  0  0  0  0  0  0  0  0  0
    2.9920    0.2899   -0.6595 C   0  0  0  0  0  0  0  0  0  0  0  0
    1.7076   -0.2063   -0.8217 C   0  0  0  0  0  0  0  0  0  0  0  0
   -0.8657    0.7667    0.7985 C   0  0  0  0  0  0  0  0  0  0  0  0
   -1.5959    1.8324    1.4975 C   0  0  0  0  0  0  0  0  0  0  0  0
   -1.6250    2.5607    0.2458 N   0  0  0  0  0  0  0  0  0  0  0  0
   -0.5068    1.7878   -0.2953 C   0  0  0  0  0  0  0  0  0  0  0  0
   -3.8432   -0.2020    0.2796 C   0  0  0  0  0  0  0  0  0  0  0  0
   -5.1133   -0.6832    0.0372 C   0  0  0  0  0  0  0  0  0  0  0  0
   -0.6925    0.0000    0.0000 H   0  0  0  0  0  0  0  0  0  0  0  0
   -6.2776   -2.3193   -0.5939 H   0  0  0  0  0  0  0  0  0  0  0  0
   -4.2240   -3.7530   -0.9598 H   0  0  0  0  0  0  0  0  0  0  0  0
   -2.0504   -2.8761   -0.5330 H   0  0  0  0  0  0  0  0  0  0  0  0
   -0.5005   -1.6545   -1.0929 H   0  0  0  0  0  0  0  0  0  0  0  0
   -0.4889   -2.3735    0.5337 H   0  0  0  0  0  0  0  0  0  0  0  0
    1.2458   -1.6501    2.1366 H   0  0  0  0  0  0  0  0  0  0  0  0
    3.5809   -0.7563    2.4510 H   0  0  0  0  0  0  0  0  0  0  0  0
    5.4368    0.4078    1.6195 H   0  0  0  0  0  0  0  0  0  0  0  0
    6.5240    1.6645   -0.2377 H   0  0  0  0  0  0  0  0  0  0  0  0
    5.3420    2.0442   -2.3806 H   0  0  0  0  0  0  0  0  0  0  0  0
    3.0467    1.1460   -2.6432 H   0  0  0  0  0  0  0  0  0  0  0  0
    1.2151   -0.0199   -1.7875 H   0  0  0  0  0  0  0  0  0  0  0  0
    0.1137    0.6253    1.3711 H   0  0  0  0  0  0  0  0  0  0  0  0
   -2.4822    1.6858    2.0750 H   0  0  0  0  0  0  0  0  0  0  0  0
   -0.9173    2.4796    2.1902 H   0  0  0  0  0  0  0  0  0  0  0  0
   -2.4760    2.5184   -0.3035 H   0  0  0  0  0  0  0  0  0  0  0  0
   -0.5997    1.4629   -1.3177 H   0  0  0  0  0  0  0  0  0  0  0  0
    0.4266    2.3503   -0.1372 H   0  0  0  0  0  0  0  0  0  0  0  0
   -3.7859    0.8005    0.6071 H   0  0  0  0  0  0  0  0  0  0  0  0
   -5.9631   -0.0518    0.2014 H   0  0  0  0  0  0  0  0  0  0  0  0
  2  3  2  0
  3  4  1  0
  4  5  2  0
  5  6  1  0
  6  7  1  0
  7  8  1  0
  8  9  2  0
  9 10  1  0
 10 11  2  0
 11 12  1  0
 12 13  2  0
 13 14  1  0
 14 15  2  0
 15 16  1  0
 16 17  2  0
  6 18  1  0
 18 19  1  0
 19 20  1  0
 20 21  1  0
  5 22  1  0
 22 23  2  0
 23  2  1  0
 17  8  1  0
 21 18  1  0
 16 11  1  0
  1 24  1  0
  2 25  1  0
  3 26  1  0
  4 27  1  0
  7 28  1  0
  7 29  1  0
  9 30  1  0
 10 31  1  0
 12 32  1  0
 13 33  1  0
 14 34  1  0
 15 35  1  0
 17 36  1  0
 18 37  1  0
 19 38  1  0
 19 39  1  0
 20 40  1  0
 21 41  1  0
 21 42  1  0
 22 43  1  0
 23 44  1  0
M  END
$$$$
