
     RDKit          3D

 55 58  0  0  0  0  0  0  0  0999 V2000
    5.3204   -1.7062   -1.2913 C   0  0  0  0  0  0  0  0  0  0  0  0
    4.4196   -1.2531   -0.3068 O   0  0  0  0  0  0  0  0  0  0  0  0
    4.3998    0.0962    0.0078 C   0  0  0  0  0  0  0  0  0  0  0  0
    5.2826    0.9395   -0.6740 C   0  0  0  0  0  0  0  0  0  0  0  0
    5.3275    2.2912   -0.4208 C   0  0  0  0  0  0  0  0  0  0  0  0
    6.2569    3.2138   -1.1313 C   0  0  0  0  0  0  0  0  0  0  0  0
    4.4756    2.7428    0.5157 N   0  0  0  0  0  0  0  0  0  0  0  0
    3.6092    1.9838    1.2000 C   0  0  0  0  0  0  0  0  0  0  0  0
    2.8432    2.5301    2.0755 O   0  0  0  0  0  0  0  0  0  0  0  0
    3.5574    0.6339    0.9531 C   0  0  0  0  0  0  0  0  0  0  0  0
    2.6186   -0.2090    1.6973 C   0  0  0  0  0  0  0  0  0  0  0  0
    1.4619   -0.6650    1.0048 N   0  0  0  0  0  0  0  0  0  0  0  0
    1.5378   -1.9525    0.3232 C   0  0  0  0  0  0  0  0  0  0  0  0
    0.2880   -2.7755    0.4304 C   0  0  0  0  0  0  0  0  0  0  0  0
   -0.9657   -1.9963    0.3697 C   0  0  0  0  0  0  0  0  0  0  0  0
   -2.1296   -2.6980    0.0529 C   0  0  0  0  0  0  0  0  0  0  0  0
   -2.1190   -4.4196   -0.2617 Cl  0  0  0  0  0  0  0  0  0  0  0  0
   -3.3431   -2.0033   -0.0156 C   0  0  0  0  0  0  0  0  0  0  0  0
   -3.4156   -0.6656    0.2182 C   0  0  0  0  0  0  0  0  0  0  0  0
   -4.7077    0.0393    0.1215 C   0  0  2  0  0  0  0  0  0  0  0  0
   -5.6696   -0.8386    0.6740 O   0  0  0  0  0  0  0  0  0  0  0  0
   -6.3383   -0.2491    1.7400 C   0  0  0  0  0  0  0  0  0  0  0  0
   -5.0817    0.2346   -1.3096 C   0  0  0  0  0  0  0  0  0  0  0  0
   -4.1303    1.0214   -2.1434 C   0  0  0  0  0  0  0  0  0  0  0  0
   -4.7082    2.2244   -1.6889 O   0  0  0  0  0  0  0  0  0  0  0  0
   -5.9033    1.4844   -1.5862 C   0  0  0  0  0  0  0  0  0  0  0  0
   -2.2452    0.0036    0.5306 C   0  0  0  0  0  0  0  0  0  0  0  0
   -2.2975    1.7000    0.8550 Cl  0  0  0  0  0  0  0  0  0  0  0  0
   -1.0359   -0.6574    0.6043 C   0  0  0  0  0  0  0  0  0  0  0  0
    0.2107    0.0229    0.9299 C   0  0  0  0  0  0  0  0  0  0  0  0
    0.2352    1.2584    1.1608 O   0  0  0  0  0  0  0  0  0  0  0  0
    5.2140   -1.1527   -2.2511 H   0  0  0  0  0  0  0  0  0  0  0  0
    5.2038   -2.7859   -1.5075 H   0  0  0  0  0  0  0  0  0  0  0  0
    6.3794   -1.5583   -0.9801 H   0  0  0  0  0  0  0  0  0  0  0  0
    5.9636    0.5593   -1.4268 H   0  0  0  0  0  0  0  0  0  0  0  0
    6.3909    2.9548   -2.1956 H   0  0  0  0  0  0  0  0  0  0  0  0
    5.7445    4.2118   -1.1275 H   0  0  0  0  0  0  0  0  0  0  0  0
    7.2451    3.2692   -0.6500 H   0  0  0  0  0  0  0  0  0  0  0  0
    4.5129    3.7885    0.7094 H   0  0  0  0  0  0  0  0  0  0  0  0
    3.1611   -1.1016    2.1241 H   0  0  0  0  0  0  0  0  0  0  0  0
    2.2548    0.3352    2.6176 H   0  0  0  0  0  0  0  0  0  0  0  0
    1.7713   -1.7810   -0.7289 H   0  0  0  0  0  0  0  0  0  0  0  0
    2.3469   -2.5837    0.7686 H   0  0  0  0  0  0  0  0  0  0  0  0
    0.3250   -3.4670    1.3021 H   0  0  0  0  0  0  0  0  0  0  0  0
    0.2800   -3.4534   -0.4731 H   0  0  0  0  0  0  0  0  0  0  0  0
   -4.2534   -2.5257   -0.2586 H   0  0  0  0  0  0  0  0  0  0  0  0
   -4.7093    1.0041    0.6708 H   0  0  0  0  0  0  0  0  0  0  0  0
   -5.6617    0.0357    2.5538 H   0  0  0  0  0  0  0  0  0  0  0  0
   -7.0382   -1.0162    2.1294 H   0  0  0  0  0  0  0  0  0  0  0  0
   -6.9970    0.6021    1.4052 H   0  0  0  0  0  0  0  0  0  0  0  0
   -5.5056   -0.6791   -1.7716 H   0  0  0  0  0  0  0  0  0  0  0  0
   -4.3339    0.8275   -3.2252 H   0  0  0  0  0  0  0  0  0  0  0  0
   -3.0733    0.9974   -1.9062 H   0  0  0  0  0  0  0  0  0  0  0  0
   -6.5721    1.8088   -0.7883 H   0  0  0  0  0  0  0  0  0  0  0  0
   -6.4028    1.3792   -2.5703 H   0  0  0  0  0  0  0  0  0  0  0  0
  1  2  1  0
  2  3  1  0
  3  4  1  0
  4  5  2  0
  5  6  1  0
  5  7  1  0
  7  8  1  0
  8  9  2  0
  8 10  1  0
 10 11  1  0
 11 12  1  0
 12 13  1  0
 13 14  1  0
 14 15  1  0
 15 16  2  0
 16 17  1  0
 16 18  1  0
 18 19  2  0
 19 20  1  0
 20 21  1  0
 21 22  1  0
 20 23  1  0
 23 24  1  0
 24 25  1  0
 25 26  1  0
 19 27  1  0
 27 28  1  0
 27 29  2  0
 29 30  1  0
 30 31  2  0
 10  3  2  0
 30 12  1  0
 29 15  1  0
 26 23  1  0
  1 32  1  0
  1 33  1  0
  1 34  1  0
  4 35  1  0
  6 36  1  0
  6 37  1  0
  6 38  1  0
  7 39  1  0
 11 40  1  0
 11 41  1  0
 13 42  1  0
 13 43  1  0
 14 44  1  0
 14 45  1  0
 18 46  1  0
 20 47  1  1
 22 48  1  0
 22 49  1  0
 22 50  1  0
 23 51  1  0
 24 52  1  0
 24 53  1  0
 26 54  1  0
 26 55  1  0
M  END
$$$$
