
     RDKit          3D

 60 64  0  0  0  0  0  0  0  0999 V2000
    2.1804   -0.9885    1.2969 C   0  0  0  0  0  0  0  0  0  0  0  0
    1.4167   -0.6428    0.0376 C   0  0  0  0  0  0  0  0  0  0  0  0
    0.0261   -0.2803    0.3297 C   0  0  0  0  0  0  0  0  0  0  0  0
   -1.0187   -0.9927    0.8302 C   0  0  0  0  0  0  0  0  0  0  0  0
   -2.1570   -0.1905    0.8812 C   0  0  0  0  0  0  0  0  0  0  0  0
   -3.5176   -0.6129    1.2748 C   0  0  0  0  0  0  0  0  0  0  0  0
   -4.0728   -1.7182    0.4918 C   0  0  0  0  0  0  0  0  0  0  0  0
   -4.6189   -2.7703    1.2547 C   0  0  0  0  0  0  0  0  0  0  0  0
   -5.1058   -3.9183    0.6894 C   0  0  0  0  0  0  0  0  0  0  0  0
   -5.0708   -4.0711   -0.6699 C   0  0  0  0  0  0  0  0  0  0  0  0
   -4.5390   -3.0466   -1.4200 C   0  0  0  0  0  0  0  0  0  0  0  0
   -4.0399   -1.8736   -0.8711 C   0  0  0  0  0  0  0  0  0  0  0  0
   -1.7636    1.0310    0.3993 C   0  0  0  0  0  0  0  0  0  0  0  0
   -2.5933    2.2300    0.2911 C   0  0  0  0  0  0  0  0  0  0  0  0
   -3.8120    2.2394   -0.3382 C   0  0  0  0  0  0  0  0  0  0  0  0
   -4.6314    3.3765   -0.3394 C   0  0  0  0  0  0  0  0  0  0  0  0
   -4.1804    4.5107    0.3155 C   0  0  0  0  0  0  0  0  0  0  0  0
   -2.9562    4.5319    0.9539 C   0  0  0  0  0  0  0  0  0  0  0  0
   -2.1837    3.3927    0.9318 C   0  0  0  0  0  0  0  0  0  0  0  0
   -0.4696    0.9629    0.0780 N   0  0  0  0  0  0  0  0  0  0  0  0
    0.4879    1.9269   -0.4184 C   0  0  0  0  0  0  0  0  0  0  0  0
    1.3023    1.2523   -1.4631 C   0  0  0  0  0  0  0  0  0  0  0  0
    2.1143    0.2231   -0.8757 N   0  0  0  0  0  0  0  0  0  0  0  0
    3.2986    0.8363   -0.3221 C   0  0  0  0  0  0  0  0  0  0  0  0
    4.4461   -0.0574   -0.5960 C   0  0  0  0  0  0  0  0  0  0  0  0
    4.4150   -0.9843   -1.6450 C   0  0  0  0  0  0  0  0  0  0  0  0
    5.4958   -1.7426   -1.8915 N   0  0  0  0  0  0  0  0  0  0  0  0
    6.6403   -1.6803   -1.1928 C   0  0  0  0  0  0  0  0  0  0  0  0
    7.7646   -2.4854   -1.4804 N   0  0  0  0  0  0  0  0  0  0  0  0
    6.6608   -0.7845   -0.1837 N   0  0  0  0  0  0  0  0  0  0  0  0
    5.6113    0.0022    0.1141 C   0  0  0  0  0  0  0  0  0  0  0  0
    5.6829    0.9500    1.2024 N   0  0  0  0  0  0  0  0  0  0  0  0
    3.1178   -1.5203    1.0527 H   0  0  0  0  0  0  0  0  0  0  0  0
    1.5352   -1.7460    1.8158 H   0  0  0  0  0  0  0  0  0  0  0  0
    2.2685   -0.1677    2.0154 H   0  0  0  0  0  0  0  0  0  0  0  0
    1.3444   -1.6344   -0.5278 H   0  0  0  0  0  0  0  0  0  0  0  0
   -1.0801   -2.0304    1.1745 H   0  0  0  0  0  0  0  0  0  0  0  0
   -4.1967    0.2864    1.2025 H   0  0  0  0  0  0  0  0  0  0  0  0
   -3.5499   -0.8607    2.3515 H   0  0  0  0  0  0  0  0  0  0  0  0
   -4.6735   -2.6703    2.3483 H   0  0  0  0  0  0  0  0  0  0  0  0
   -5.5075   -4.6946    1.3590 H   0  0  0  0  0  0  0  0  0  0  0  0
   -5.4410   -4.9579   -1.1177 H   0  0  0  0  0  0  0  0  0  0  0  0
   -4.5323   -3.2105   -2.5101 H   0  0  0  0  0  0  0  0  0  0  0  0
   -3.6237   -1.0892   -1.4896 H   0  0  0  0  0  0  0  0  0  0  0  0
   -4.1407    1.3503   -0.8615 H   0  0  0  0  0  0  0  0  0  0  0  0
   -5.5825    3.3289   -0.8431 H   0  0  0  0  0  0  0  0  0  0  0  0
   -4.8193    5.3960    0.3215 H   0  0  0  0  0  0  0  0  0  0  0  0
   -2.6197    5.4525    1.4654 H   0  0  0  0  0  0  0  0  0  0  0  0
   -1.2223    3.3677    1.4164 H   0  0  0  0  0  0  0  0  0  0  0  0
    0.0264    2.8350   -0.8601 H   0  0  0  0  0  0  0  0  0  0  0  0
    1.1299    2.1752    0.4670 H   0  0  0  0  0  0  0  0  0  0  0  0
    2.0315    2.0223   -1.8580 H   0  0  0  0  0  0  0  0  0  0  0  0
    0.7178    0.9310   -2.3232 H   0  0  0  0  0  0  0  0  0  0  0  0
    3.4961    1.8172   -0.8109 H   0  0  0  0  0  0  0  0  0  0  0  0
    3.2224    1.0290    0.7563 H   0  0  0  0  0  0  0  0  0  0  0  0
    3.5081   -1.0462   -2.1967 H   0  0  0  0  0  0  0  0  0  0  0  0
    7.7112   -3.5181   -1.4321 H   0  0  0  0  0  0  0  0  0  0  0  0
    8.6556   -2.0348   -1.7503 H   0  0  0  0  0  0  0  0  0  0  0  0
    5.4792    0.6363    2.1648 H   0  0  0  0  0  0  0  0  0  0  0  0
    5.9328    1.9272    1.0050 H   0  0  0  0  0  0  0  0  0  0  0  0
  1  2  1  0
  2  3  1  0
  3  4  2  0
  4  5  1  0
  5  6  1  0
  6  7  1  0
  7  8  2  0
  8  9  1  0
  9 10  2  0
 10 11  1  0
 11 12  2  0
  5 13  2  0
 13 14  1  0
 14 15  2  0
 15 16  1  0
 16 17  2  0
 17 18  1  0
 18 19  2  0
 13 20  1  0
 20 21  1  0
 21 22  1  0
 22 23  1  0
 23 24  1  0
 24 25  1  0
 25 26  2  0
 26 27  1  0
 27 28  2  0
 28 29  1  0
 28 30  1  0
 30 31  2  0
 31 32  1  0
 23  2  1  0
 31 25  1  0
 20  3  1  0
 12  7  1  0
 19 14  1  0
  1 33  1  0
  1 34  1  0
  1 35  1  0
  2 36  1  0
  4 37  1  0
  6 38  1  0
  6 39  1  0
  8 40  1  0
  9 41  1  0
 10 42  1  0
 11 43  1  0
 12 44  1  0
 15 45  1  0
 16 46  1  0
 17 47  1  0
 18 48  1  0
 19 49  1  0
 21 50  1  0
 21 51  1  0
 22 52  1  0
 22 53  1  0
 24 54  1  0
 24 55  1  0
 26 56  1  0
 29 57  1  0
 29 58  1  0
 32 59  1  0
 32 60  1  0
M  END
$$$$
