
     RDKit          3D

 70 74  0  0  0  0  0  0  0  0999 V2000
   -0.3843    2.3267   -0.3363 C   0  0  0  0  0  0  0  0  0  0  0  0
    0.0314    1.1423   -1.1458 C   0  0  0  0  0  0  0  0  0  0  0  0
   -0.5892    0.9882   -2.5001 C   0  0  0  0  0  0  0  0  0  0  0  0
    0.2518   -0.1072   -0.3906 C   0  0  0  0  0  0  0  0  0  0  0  0
    1.5031   -0.6456   -0.0277 C   0  0  0  0  0  0  0  0  0  0  0  0
    2.8169   -0.0706   -0.2996 C   0  0  0  0  0  0  0  0  0  0  0  0
    3.2139    1.0425   -0.9072 N   0  0  0  0  0  0  0  0  0  0  0  0
    4.5264    1.1345   -0.9093 N   0  0  0  0  0  0  0  0  0  0  0  0
    4.9886    0.0474   -0.2837 C   0  0  0  0  0  0  0  0  0  0  0  0
    6.3740   -0.2935   -0.0419 N   0  0  0  0  0  0  0  0  0  0  0  0
    6.6826   -1.5029    0.6592 C   0  0  0  0  0  0  0  0  0  0  0  0
    8.1169   -1.8216    0.8614 C   0  0  0  0  0  0  0  0  0  0  0  0
    8.9032   -0.8281    1.6343 C   0  0  0  0  0  0  0  0  0  0  0  0
    9.0255    0.4740    1.0647 N   0  0  0  0  0  0  0  0  0  0  0  0
    9.8727    0.4749   -0.1238 C   0  0  0  0  0  0  0  0  0  0  0  0
    9.4727    1.4546    2.0197 C   0  0  0  0  0  0  0  0  0  0  0  0
    3.9472   -0.6565    0.0709 O   0  0  0  0  0  0  0  0  0  0  0  0
    1.2734   -1.8224    0.6405 C   0  0  0  0  0  0  0  0  0  0  0  0
   -0.0399   -2.0541    0.7198 N   0  0  0  0  0  0  0  0  0  0  0  0
   -0.7110   -3.0652    1.2644 N   0  0  0  0  0  0  0  0  0  0  0  0
   -2.0422   -3.0931    1.2178 C   0  0  0  0  0  0  0  0  0  0  0  0
   -2.6689   -2.1114    0.6304 N   0  0  0  0  0  0  0  0  0  0  0  0
   -2.0452   -1.0335    0.0465 C   0  0  0  0  0  0  0  0  0  0  0  0
   -2.8223   -0.0341   -0.5393 N   0  0  0  0  0  0  0  0  0  0  0  0
   -4.2148   -0.3206   -0.7583 C   0  0  0  0  0  0  0  0  0  0  0  0
   -5.2308    0.3866   -0.2154 C   0  0  0  0  0  0  0  0  0  0  0  0
   -6.5719    0.0289   -0.4916 C   0  0  0  0  0  0  0  0  0  0  0  0
   -7.5997    0.8514    0.1129 C   0  0  0  0  0  0  0  0  0  0  0  0
   -7.2818    1.7054    1.0197 O   0  0  0  0  0  0  0  0  0  0  0  0
   -8.9799    0.8317   -0.1879 N   0  0  0  0  0  0  0  0  0  0  0  0
   -9.9456    1.6931    0.4729 C   0  0  0  0  0  0  0  0  0  0  0  0
  -11.1992    0.9287    0.9859 C   0  0  0  0  0  0  0  0  0  0  0  0
  -11.2806    1.9110   -0.1214 C   0  0  0  0  0  0  0  0  0  0  0  0
   -6.8416   -1.0262   -1.3024 C   0  0  0  0  0  0  0  0  0  0  0  0
   -8.1041   -1.3977   -1.5729 F   0  0  0  0  0  0  0  0  0  0  0  0
   -5.7924   -1.7612   -1.8670 C   0  0  0  0  0  0  0  0  0  0  0  0
   -4.4838   -1.3924   -1.5825 C   0  0  0  0  0  0  0  0  0  0  0  0
   -3.5156   -2.1451   -2.1606 F   0  0  0  0  0  0  0  0  0  0  0  0
   -0.6683   -1.0211    0.1005 C   0  0  0  0  0  0  0  0  0  0  0  0
   -0.9942    3.0068   -1.0021 H   0  0  0  0  0  0  0  0  0  0  0  0
   -0.9751    2.0567    0.5689 H   0  0  0  0  0  0  0  0  0  0  0  0
    0.4446    2.9563    0.0442 H   0  0  0  0  0  0  0  0  0  0  0  0
    1.1173    1.4475   -1.4476 H   0  0  0  0  0  0  0  0  0  0  0  0
   -1.0126   -0.0150   -2.6272 H   0  0  0  0  0  0  0  0  0  0  0  0
   -1.4129    1.7342   -2.7014 H   0  0  0  0  0  0  0  0  0  0  0  0
    0.1096    1.1247   -3.3553 H   0  0  0  0  0  0  0  0  0  0  0  0
    7.0901    0.3573   -0.3901 H   0  0  0  0  0  0  0  0  0  0  0  0
    6.2091   -1.5048    1.6949 H   0  0  0  0  0  0  0  0  0  0  0  0
    6.1429   -2.3743    0.1667 H   0  0  0  0  0  0  0  0  0  0  0  0
    8.1606   -2.7940    1.4442 H   0  0  0  0  0  0  0  0  0  0  0  0
    8.6290   -2.1101   -0.1093 H   0  0  0  0  0  0  0  0  0  0  0  0
    9.9501   -1.2044    1.8365 H   0  0  0  0  0  0  0  0  0  0  0  0
    8.3973   -0.7283    2.6388 H   0  0  0  0  0  0  0  0  0  0  0  0
   10.7598    1.1028    0.0968 H   0  0  0  0  0  0  0  0  0  0  0  0
   10.1317   -0.5834   -0.3379 H   0  0  0  0  0  0  0  0  0  0  0  0
    9.3561    0.9553   -0.9913 H   0  0  0  0  0  0  0  0  0  0  0  0
    9.0162    2.4399    1.9191 H   0  0  0  0  0  0  0  0  0  0  0  0
   10.5884    1.5559    1.9052 H   0  0  0  0  0  0  0  0  0  0  0  0
    9.3143    1.0114    3.0362 H   0  0  0  0  0  0  0  0  0  0  0  0
    2.0583   -2.4719    1.0470 H   0  0  0  0  0  0  0  0  0  0  0  0
   -2.6068   -3.9167    1.6589 H   0  0  0  0  0  0  0  0  0  0  0  0
   -2.5443    0.8758   -0.8012 H   0  0  0  0  0  0  0  0  0  0  0  0
   -5.0147    1.2235    0.4283 H   0  0  0  0  0  0  0  0  0  0  0  0
   -9.3291    0.1863   -0.9150 H   0  0  0  0  0  0  0  0  0  0  0  0
   -9.5015    2.3613    1.2271 H   0  0  0  0  0  0  0  0  0  0  0  0
  -11.5908    1.2297    1.9747 H   0  0  0  0  0  0  0  0  0  0  0  0
  -11.2395   -0.1599    0.7821 H   0  0  0  0  0  0  0  0  0  0  0  0
  -11.7474    2.9003    0.0861 H   0  0  0  0  0  0  0  0  0  0  0  0
  -11.4540    1.4877   -1.1357 H   0  0  0  0  0  0  0  0  0  0  0  0
   -6.0394   -2.5808   -2.4977 H   0  0  0  0  0  0  0  0  0  0  0  0
  1  2  1  0
  2  3  1  0
  2  4  1  0
  4  5  1  0
  5  6  1  0
  6  7  2  0
  7  8  1  0
  8  9  2  0
  9 10  1  0
 10 11  1  0
 11 12  1  0
 12 13  1  0
 13 14  1  0
 14 15  1  0
 14 16  1  0
  9 17  1  0
  5 18  2  0
 18 19  1  0
 19 20  1  0
 20 21  2  0
 21 22  1  0
 22 23  2  0
 23 24  1  0
 24 25  1  0
 25 26  2  0
 26 27  1  0
 27 28  1  0
 28 29  2  0
 28 30  1  0
 30 31  1  0
 31 32  1  0
 32 33  1  0
 27 34  2  0
 34 35  1  0
 34 36  1  0
 36 37  2  0
 37 38  1  0
 23 39  1  0
 39  4  2  0
 17  6  1  0
 39 19  1  0
 37 25  1  0
 33 31  1  0
  1 40  1  0
  1 41  1  0
  1 42  1  0
  2 43  1  0
  3 44  1  0
  3 45  1  0
  3 46  1  0
 10 47  1  0
 11 48  1  0
 11 49  1  0
 12 50  1  0
 12 51  1  0
 13 52  1  0
 13 53  1  0
 15 54  1  0
 15 55  1  0
 15 56  1  0
 16 57  1  0
 16 58  1  0
 16 59  1  0
 18 60  1  0
 21 61  1  0
 24 62  1  0
 26 63  1  0
 30 64  1  0
 31 65  1  0
 32 66  1  0
 32 67  1  0
 33 68  1  0
 33 69  1  0
 36 70  1  0
M  END
$$$$
