
     RDKit          3D

 72 74  0  0  0  0  0  0  0  0999 V2000
    8.4957    3.6685    0.8844 C   0  0  0  0  0  0  0  0  0  0  0  0
    8.0209    2.2742    0.6745 C   0  0  0  0  0  0  0  0  0  0  0  0
    8.9161    1.2423    0.4560 C   0  0  0  0  0  0  0  0  0  0  0  0
    8.4746   -0.0147    0.2673 N   0  0  0  0  0  0  0  0  0  0  0  0
    7.1494   -0.3238    0.2824 C   0  0  0  0  0  0  0  0  0  0  0  0
    6.7502   -1.7377    0.0638 C   0  0  0  0  0  0  0  0  0  0  0  0
    6.2092    0.6539    0.4941 C   0  0  0  0  0  0  0  0  0  0  0  0
    4.7490    0.3741    0.5221 C   0  0  0  0  0  0  0  0  0  0  0  0
    4.2903    0.1775   -0.8934 C   0  0  0  0  0  0  0  0  0  0  0  0
    2.8356   -0.1119   -1.0405 C   0  0  0  0  0  0  0  0  0  0  0  0
    2.3999   -1.3618   -0.3243 C   0  0  0  0  0  0  0  0  0  0  0  0
    0.8915   -1.4803   -0.2793 C   0  0  0  0  0  0  0  0  0  0  0  0
    0.3679   -0.6886   -1.3422 N   0  0  0  0  0  0  0  0  0  0  0  0
   -1.3327   -0.9759   -1.6353 S   0  0  0  0  0  6  0  0  0  0  0  0
   -1.7589   -0.3734   -2.9102 O   0  0  0  0  0  0  0  0  0  0  0  0
   -1.3997   -2.4917   -1.8707 O   0  0  0  0  0  0  0  0  0  0  0  0
   -2.1754   -0.5476   -0.1938 C   0  0  0  0  0  0  0  0  0  0  0  0
   -3.6939   -0.7232   -0.2085 C   0  0  2  0  0  0  0  0  0  0  0  0
   -4.2253    0.1998   -1.2877 C   0  0  0  0  0  0  0  0  0  0  0  0
   -4.1224   -0.3449    1.1569 C   0  0  0  0  0  0  0  0  0  0  0  0
   -5.5270   -0.4222    1.5475 C   0  0  2  0  0  0  0  0  0  0  0  0
   -6.1462   -1.7963    1.4671 C   0  0  0  0  0  0  0  0  0  0  0  0
   -6.4744    0.5345    0.9519 C   0  0  0  0  0  0  0  0  0  0  0  0
   -6.7194    1.7445    1.5027 N   0  0  0  0  0  0  0  0  0  0  0  0
   -7.5923    2.6300    1.0095 C   0  0  0  0  0  0  0  0  0  0  0  0
   -8.3032    2.3226   -0.1296 C   0  0  0  0  0  0  0  0  0  0  0  0
   -9.2064    3.2079   -0.6624 F   0  0  0  0  0  0  0  0  0  0  0  0
   -8.0768    1.0962   -0.7162 C   0  0  0  0  0  0  0  0  0  0  0  0
   -7.1883    0.2460   -0.1774 N   0  0  0  0  0  0  0  0  0  0  0  0
   -3.9177   -2.1088   -0.5332 N   0  0  0  0  0  0  0  0  0  0  0  0
   -4.6072   -2.4118   -1.6447 O   0  0  0  0  0  0  0  0  0  0  0  0
   -3.4304   -3.1465    0.2841 C   0  0  0  0  0  0  0  0  0  0  0  0
   -3.5892   -4.3639    0.0571 O   0  0  0  0  0  0  0  0  0  0  0  0
    0.5458    0.7225   -1.1205 C   0  0  0  0  0  0  0  0  0  0  0  0
    1.9518    1.0222   -0.5996 C   0  0  0  0  0  0  0  0  0  0  0  0
    6.6881    1.9427    0.6862 C   0  0  0  0  0  0  0  0  0  0  0  0
    8.3647    4.2276   -0.0701 H   0  0  0  0  0  0  0  0  0  0  0  0
    7.7610    4.1306    1.6042 H   0  0  0  0  0  0  0  0  0  0  0  0
    9.5223    3.7048    1.2579 H   0  0  0  0  0  0  0  0  0  0  0  0
    9.9691    1.4911    0.4446 H   0  0  0  0  0  0  0  0  0  0  0  0
    6.8553   -1.9145   -1.0438 H   0  0  0  0  0  0  0  0  0  0  0  0
    7.5029   -2.4031    0.5502 H   0  0  0  0  0  0  0  0  0  0  0  0
    5.7310   -1.9459    0.4235 H   0  0  0  0  0  0  0  0  0  0  0  0
    4.5632   -0.4805    1.1904 H   0  0  0  0  0  0  0  0  0  0  0  0
    4.2540    1.2801    0.9425 H   0  0  0  0  0  0  0  0  0  0  0  0
    4.5127    1.1276   -1.4341 H   0  0  0  0  0  0  0  0  0  0  0  0
    4.8534   -0.6398   -1.3868 H   0  0  0  0  0  0  0  0  0  0  0  0
    2.6473   -0.2476   -2.1401 H   0  0  0  0  0  0  0  0  0  0  0  0
    2.8298   -1.4227    0.6978 H   0  0  0  0  0  0  0  0  0  0  0  0
    2.7738   -2.2679   -0.8819 H   0  0  0  0  0  0  0  0  0  0  0  0
    0.6041   -2.5355   -0.3845 H   0  0  0  0  0  0  0  0  0  0  0  0
    0.5512   -1.1525    0.7264 H   0  0  0  0  0  0  0  0  0  0  0  0
   -1.8281   -1.2356    0.6314 H   0  0  0  0  0  0  0  0  0  0  0  0
   -1.9447    0.4724    0.1943 H   0  0  0  0  0  0  0  0  0  0  0  0
   -5.0203   -0.3399   -1.8324 H   0  0  0  0  0  0  0  0  0  0  0  0
   -4.7092    1.1034   -0.8367 H   0  0  0  0  0  0  0  0  0  0  0  0
   -3.4354    0.6344   -1.9294 H   0  0  0  0  0  0  0  0  0  0  0  0
   -3.4898   -0.9011    1.8879 H   0  0  0  0  0  0  0  0  0  0  0  0
   -3.7970    0.7302    1.2967 H   0  0  0  0  0  0  0  0  0  0  0  0
   -5.5398   -0.1600    2.6600 H   0  0  0  0  0  0  0  0  0  0  0  0
   -7.1582   -1.6955    1.9638 H   0  0  0  0  0  0  0  0  0  0  0  0
   -6.3594   -2.1361    0.4492 H   0  0  0  0  0  0  0  0  0  0  0  0
   -5.6049   -2.5305    2.0973 H   0  0  0  0  0  0  0  0  0  0  0  0
   -7.7683    3.5883    1.4690 H   0  0  0  0  0  0  0  0  0  0  0  0
   -8.6392    0.8590   -1.6129 H   0  0  0  0  0  0  0  0  0  0  0  0
   -4.8527   -3.3691   -1.7040 H   0  0  0  0  0  0  0  0  0  0  0  0
   -2.8775   -2.8881    1.1752 H   0  0  0  0  0  0  0  0  0  0  0  0
   -0.1400    1.1448   -0.3681 H   0  0  0  0  0  0  0  0  0  0  0  0
    0.4033    1.2889   -2.0784 H   0  0  0  0  0  0  0  0  0  0  0  0
    2.2929    1.9645   -1.0576 H   0  0  0  0  0  0  0  0  0  0  0  0
    1.9429    1.1248    0.5093 H   0  0  0  0  0  0  0  0  0  0  0  0
    5.9801    2.7591    0.8588 H   0  0  0  0  0  0  0  0  0  0  0  0
  1  2  1  0
  2  3  2  0
  3  4  1  0
  4  5  2  0
  5  6  1  0
  5  7  1  0
  7  8  1  0
  8  9  1  0
  9 10  1  0
 10 11  1  0
 11 12  1  0
 12 13  1  0
 13 14  1  0
 14 15  2  0
 14 16  2  0
 14 17  1  0
 17 18  1  0
 18 19  1  0
 18 20  1  0
 20 21  1  0
 21 22  1  0
 21 23  1  0
 23 24  2  0
 24 25  1  0
 25 26  2  0
 26 27  1  0
 26 28  1  0
 28 29  2  0
 18 30  1  6
 30 31  1  0
 30 32  1  0
 32 33  2  0
 13 34  1  0
 34 35  1  0
  7 36  2  0
 36  2  1  0
 35 10  1  0
 29 23  1  0
  1 37  1  0
  1 38  1  0
  1 39  1  0
  3 40  1  0
  6 41  1  0
  6 42  1  0
  6 43  1  0
  8 44  1  0
  8 45  1  0
  9 46  1  0
  9 47  1  0
 10 48  1  0
 11 49  1  0
 11 50  1  0
 12 51  1  0
 12 52  1  0
 17 53  1  0
 17 54  1  0
 19 55  1  0
 19 56  1  0
 19 57  1  0
 20 58  1  0
 20 59  1  0
 21 60  1  1
 22 61  1  0
 22 62  1  0
 22 63  1  0
 25 64  1  0
 28 65  1  0
 31 66  1  0
 32 67  1  0
 34 68  1  0
 34 69  1  0
 35 70  1  0
 35 71  1  0
 36 72  1  0
M  END
$$$$
