
     RDKit          3D

109113  0  0  0  0  0  0  0  0999 V2000
    5.8822    5.8998    3.1265 C   0  0  0  0  0  0  0  0  0  0  0  0
    5.9310    4.8441    2.5903 C   0  0  0  0  0  0  0  0  0  0  0  0
    6.0048    3.5812    1.9509 C   0  0  0  0  0  0  0  0  0  0  0  0
    5.1614    3.3525    0.8678 C   0  0  0  0  0  0  0  0  0  0  0  0
    5.1747    2.1215    0.2930 C   0  0  0  0  0  0  0  0  0  0  0  0
    4.3306    1.8761   -0.8374 N   0  0  0  0  0  0  0  0  0  0  0  0
    3.5667    0.6920   -0.8436 C   0  0  0  0  0  0  0  0  0  0  0  0
    4.1167   -0.5020   -1.0469 N   0  0  0  0  0  0  0  0  0  0  0  0
    3.3598   -1.6391   -1.0487 C   0  0  0  0  0  0  0  0  0  0  0  0
    2.0104   -1.4946   -0.8326 C   0  0  0  0  0  0  0  0  0  0  0  0
    1.4123   -0.2646   -0.6192 C   0  0  0  0  0  0  0  0  0  0  0  0
    0.1398   -0.1108   -0.4130 O   0  0  0  0  0  0  0  0  0  0  0  0
   -1.0510   -0.6279   -0.2928 C   0  0  0  0  0  0  0  0  0  0  0  0
   -1.7216   -0.4601    0.9279 C   0  0  0  0  0  0  0  0  0  0  0  0
   -2.9800   -0.9748    1.1377 C   0  0  0  0  0  0  0  0  0  0  0  0
   -3.6446   -1.6728    0.1760 C   0  0  0  0  0  0  0  0  0  0  0  0
   -4.9421   -2.2349    0.3424 N   0  0  0  0  0  0  0  0  0  0  0  0
   -6.0761   -1.4281    0.0818 C   0  0  0  0  0  0  0  0  0  0  0  0
   -5.9874   -0.2237   -0.2651 O   0  0  0  0  0  0  0  0  0  0  0  0
   -7.4002   -1.9629    0.2047 N   0  0  0  0  0  0  0  0  0  0  0  0
   -8.5668   -1.2009   -0.0298 C   0  0  0  0  0  0  0  0  0  0  0  0
   -8.9766   -1.1097   -1.3560 C   0  0  0  0  0  0  0  0  0  0  0  0
  -10.1011   -0.4025   -1.7242 C   0  0  0  0  0  0  0  0  0  0  0  0
  -10.4863   -0.3380   -3.1720 C   0  0  0  0  0  0  0  0  0  0  0  0
  -11.3653   -1.5281   -3.5134 C   0  0  0  0  0  0  0  0  0  0  0  0
  -11.2251    0.9477   -3.4690 C   0  0  0  0  0  0  0  0  0  0  0  0
   -9.2536   -0.3699   -4.0583 C   0  0  0  0  0  0  0  0  0  0  0  0
  -10.8268    0.2251   -0.7307 C   0  0  0  0  0  0  0  0  0  0  0  0
  -10.4179    0.1323    0.5939 C   0  0  0  0  0  0  0  0  0  0  0  0
  -11.2182    0.7425    1.5765 N   0  0  0  0  0  0  0  0  0  0  0  0
  -11.2416    2.4229    1.9285 S   0  0  0  0  0  6  0  0  0  0  0  0
   -9.6135    2.9351    2.4975 C   0  0  0  0  0  0  0  0  0  0  0  0
  -12.1875    2.6643    3.0904 O   0  0  0  0  0  0  0  0  0  0  0  0
  -11.6402    3.2480    0.7587 O   0  0  0  0  0  0  0  0  0  0  0  0
   -9.2889   -0.5784    0.9497 C   0  0  0  0  0  0  0  0  0  0  0  0
   -8.8934   -0.6608    2.2527 O   0  0  0  0  0  0  0  0  0  0  0  0
   -9.2573   -1.6162    3.2043 C   0  0  0  0  0  0  0  0  0  0  0  0
   -2.9977   -1.8573   -1.0611 C   0  0  0  0  0  0  0  0  0  0  0  0
   -3.6882   -2.5670   -2.0214 C   0  0  0  0  0  0  0  0  0  0  0  0
   -3.0508   -2.7524   -3.2458 C   0  0  0  0  0  0  0  0  0  0  0  0
   -1.8048   -2.2449   -3.4593 C   0  0  0  0  0  0  0  0  0  0  0  0
   -1.1566   -1.5433   -2.4691 C   0  0  0  0  0  0  0  0  0  0  0  0
   -1.7563   -1.3382   -1.2402 C   0  0  0  0  0  0  0  0  0  0  0  0
    2.2497    0.8141   -0.6357 N   0  0  0  0  0  0  0  0  0  0  0  0
    6.0159    1.1313    0.7864 C   0  0  0  0  0  0  0  0  0  0  0  0
    6.8554    1.3440    1.8525 C   0  0  0  0  0  0  0  0  0  0  0  0
    7.7385    0.3288    2.3718 C   0  0  0  0  0  0  0  0  0  0  0  0
    8.5647    0.6566    3.2925 O   0  0  0  0  0  0  0  0  0  0  0  0
    7.7504   -1.0159    1.9278 N   0  0  0  0  0  0  0  0  0  0  0  0
    8.6348   -1.9978    2.4412 C   0  0  0  0  0  0  0  0  0  0  0  0
   10.0890   -1.7764    2.1898 C   0  0  0  0  0  0  0  0  0  0  0  0
   10.4291   -1.7510    0.8916 O   0  0  0  0  0  0  0  0  0  0  0  0
   10.0354   -0.7675    0.0534 C   0  0  0  0  0  0  0  0  0  0  0  0
   10.6793    0.5684    0.4424 C   0  0  0  0  0  0  0  0  0  0  0  0
   12.0722    0.3489    0.3377 O   0  0  0  0  0  0  0  0  0  0  0  0
   12.7709    1.4963    0.6634 C   0  0  0  0  0  0  0  0  0  0  0  0
   14.2500    1.1342    0.5095 C   0  0  0  0  0  0  0  0  0  0  0  0
   14.4171    0.7586   -0.8196 O   0  0  0  0  0  0  0  0  0  0  0  0
   15.7554    0.3999   -1.0503 C   0  0  0  0  0  0  0  0  0  0  0  0
    6.8371    2.5920    2.4317 C   0  0  0  0  0  0  0  0  0  0  0  0
    5.8239    6.8242    3.6060 H   0  0  0  0  0  0  0  0  0  0  0  0
    4.5013    4.1064    0.4741 H   0  0  0  0  0  0  0  0  0  0  0  0
    4.2870    2.5618   -1.6324 H   0  0  0  0  0  0  0  0  0  0  0  0
    3.7636   -2.6188   -1.2058 H   0  0  0  0  0  0  0  0  0  0  0  0
    1.3586   -2.3909   -0.8205 H   0  0  0  0  0  0  0  0  0  0  0  0
   -1.2611    0.0791    1.7300 H   0  0  0  0  0  0  0  0  0  0  0  0
   -3.4760   -0.8229    2.1079 H   0  0  0  0  0  0  0  0  0  0  0  0
   -5.0301   -3.2418    0.6541 H   0  0  0  0  0  0  0  0  0  0  0  0
   -7.4988   -2.9506    0.4787 H   0  0  0  0  0  0  0  0  0  0  0  0
   -8.4249   -1.5942   -2.1583 H   0  0  0  0  0  0  0  0  0  0  0  0
  -11.8496   -1.9594   -2.6338 H   0  0  0  0  0  0  0  0  0  0  0  0
  -12.0794   -1.2006   -4.3087 H   0  0  0  0  0  0  0  0  0  0  0  0
  -10.7456   -2.3463   -3.9560 H   0  0  0  0  0  0  0  0  0  0  0  0
  -12.3138    0.7919   -3.3361 H   0  0  0  0  0  0  0  0  0  0  0  0
  -11.0864    1.1863   -4.5636 H   0  0  0  0  0  0  0  0  0  0  0  0
  -10.8982    1.7723   -2.8443 H   0  0  0  0  0  0  0  0  0  0  0  0
   -8.3418    0.0253   -3.5193 H   0  0  0  0  0  0  0  0  0  0  0  0
   -9.3818    0.2430   -4.9853 H   0  0  0  0  0  0  0  0  0  0  0  0
   -9.0182   -1.4124   -4.3467 H   0  0  0  0  0  0  0  0  0  0  0  0
  -11.6968    0.7683   -1.0200 H   0  0  0  0  0  0  0  0  0  0  0  0
  -11.8433    0.0877    2.1245 H   0  0  0  0  0  0  0  0  0  0  0  0
   -8.9121    3.0500    1.6689 H   0  0  0  0  0  0  0  0  0  0  0  0
   -9.2185    2.1175    3.1816 H   0  0  0  0  0  0  0  0  0  0  0  0
   -9.6692    3.8558    3.1067 H   0  0  0  0  0  0  0  0  0  0  0  0
   -8.5906   -1.4537    4.0999 H   0  0  0  0  0  0  0  0  0  0  0  0
   -9.1415   -2.6575    2.8859 H   0  0  0  0  0  0  0  0  0  0  0  0
  -10.2840   -1.4772    3.6020 H   0  0  0  0  0  0  0  0  0  0  0  0
   -4.6786   -2.9667   -1.8373 H   0  0  0  0  0  0  0  0  0  0  0  0
   -3.5659   -3.3083   -4.0266 H   0  0  0  0  0  0  0  0  0  0  0  0
   -1.3156   -2.3873   -4.3981 H   0  0  0  0  0  0  0  0  0  0  0  0
   -0.1908   -1.1502   -2.6360 H   0  0  0  0  0  0  0  0  0  0  0  0
    5.9716    0.1808    0.2751 H   0  0  0  0  0  0  0  0  0  0  0  0
    7.0339   -1.2439    1.1815 H   0  0  0  0  0  0  0  0  0  0  0  0
    8.3369   -2.9911    1.9833 H   0  0  0  0  0  0  0  0  0  0  0  0
    8.4792   -2.1495    3.5447 H   0  0  0  0  0  0  0  0  0  0  0  0
   10.3748   -0.8034    2.6897 H   0  0  0  0  0  0  0  0  0  0  0  0
   10.6255   -2.6062    2.7509 H   0  0  0  0  0  0  0  0  0  0  0  0
    8.9528   -0.6175   -0.0562 H   0  0  0  0  0  0  0  0  0  0  0  0
   10.4663   -1.0215   -0.9735 H   0  0  0  0  0  0  0  0  0  0  0  0
   10.4006    1.3573   -0.2673 H   0  0  0  0  0  0  0  0  0  0  0  0
   10.4956    0.8678    1.4598 H   0  0  0  0  0  0  0  0  0  0  0  0
   12.5716    2.2787   -0.1091 H   0  0  0  0  0  0  0  0  0  0  0  0
   12.5738    1.8813    1.6802 H   0  0  0  0  0  0  0  0  0  0  0  0
   14.4522    0.2684    1.1909 H   0  0  0  0  0  0  0  0  0  0  0  0
   14.9037    1.9959    0.7343 H   0  0  0  0  0  0  0  0  0  0  0  0
   16.0239   -0.4433   -0.3755 H   0  0  0  0  0  0  0  0  0  0  0  0
   15.8395    0.1315   -2.1135 H   0  0  0  0  0  0  0  0  0  0  0  0
   16.3809    1.2914   -0.8483 H   0  0  0  0  0  0  0  0  0  0  0  0
    7.4774    2.7978    3.2740 H   0  0  0  0  0  0  0  0  0  0  0  0
  1  2  3  0
  2  3  1  0
  3  4  2  0
  4  5  1  0
  5  6  1  0
  6  7  1  0
  7  8  2  0
  8  9  1  0
  9 10  2  0
 10 11  1  0
 11 12  1  0
 12 13  1  0
 13 14  2  0
 14 15  1  0
 15 16  2  0
 16 17  1  0
 17 18  1  0
 18 19  2  0
 18 20  1  0
 20 21  1  0
 21 22  2  0
 22 23  1  0
 23 24  1  0
 24 25  1  0
 24 26  1  0
 24 27  1  0
 23 28  2  0
 28 29  1  0
 29 30  1  0
 30 31  1  0
 31 32  1  0
 31 33  2  0
 31 34  2  0
 29 35  2  0
 35 36  1  0
 36 37  1  0
 16 38  1  0
 38 39  2  0
 39 40  1  0
 40 41  2  0
 41 42  1  0
 42 43  2  0
 11 44  2  0
  5 45  2  0
 45 46  1  0
 46 47  1  0
 47 48  2  0
 47 49  1  0
 49 50  1  0
 50 51  1  0
 51 52  1  0
 52 53  1  0
 53 54  1  0
 54 55  1  0
 55 56  1  0
 56 57  1  0
 57 58  1  0
 58 59  1  0
 46 60  2  0
 60  3  1  0
 44  7  1  0
 43 13  1  0
 35 21  1  0
 43 38  1  0
  1 61  1  0
  4 62  1  0
  6 63  1  0
  9 64  1  0
 10 65  1  0
 14 66  1  0
 15 67  1  0
 17 68  1  0
 20 69  1  0
 22 70  1  0
 25 71  1  0
 25 72  1  0
 25 73  1  0
 26 74  1  0
 26 75  1  0
 26 76  1  0
 27 77  1  0
 27 78  1  0
 27 79  1  0
 28 80  1  0
 30 81  1  0
 32 82  1  0
 32 83  1  0
 32 84  1  0
 37 85  1  0
 37 86  1  0
 37 87  1  0
 39 88  1  0
 40 89  1  0
 41 90  1  0
 42 91  1  0
 45 92  1  0
 49 93  1  0
 50 94  1  0
 50 95  1  0
 51 96  1  0
 51 97  1  0
 53 98  1  0
 53 99  1  0
 54100  1  0
 54101  1  0
 56102  1  0
 56103  1  0
 57104  1  0
 57105  1  0
 59106  1  0
 59107  1  0
 59108  1  0
 60109  1  0
M  END
$$$$
