
     RDKit          3D

 27 28  0  0  0  0  0  0  0  0999 V2000
   -2.8121   -1.4006    0.3297 N   0  0  0  0  0  0  0  0  0  0  0  0
   -2.4653   -0.1627    0.9488 C   0  0  1  0  0  0  0  0  0  0  0  0
   -1.0035   -0.0691    1.2180 C   0  0  0  0  0  0  0  0  0  0  0  0
   -0.1548   -0.1630    0.0152 C   0  0  0  0  0  0  0  0  0  0  0  0
   -0.3507   -0.3185   -1.3337 C   0  0  0  0  0  0  0  0  0  0  0  0
    0.7963   -0.3417   -2.0074 N   0  0  0  0  0  0  0  0  0  0  0  0
    1.7732   -0.1992   -1.0924 C   0  0  0  0  0  0  0  0  0  0  0  0
    1.2325   -0.0841    0.1813 C   0  0  0  0  0  0  0  0  0  0  0  0
    2.1149    0.0691    1.2330 C   0  0  0  0  0  0  0  0  0  0  0  0
    3.4803    0.1060    1.0230 C   0  0  0  0  0  0  0  0  0  0  0  0
    4.2592    0.2590    2.1142 F   0  0  0  0  0  0  0  0  0  0  0  0
    4.0221   -0.0086   -0.2467 C   0  0  0  0  0  0  0  0  0  0  0  0
    3.1409   -0.1629   -1.3093 C   0  0  0  0  0  0  0  0  0  0  0  0
   -2.9422    1.0295    0.1943 C   0  0  0  0  0  0  0  0  0  0  0  0
   -3.6639    0.9557   -1.0105 O   0  0  0  0  0  0  0  0  0  0  0  0
   -2.6978    2.1811    0.6399 O   0  0  0  0  0  0  0  0  0  0  0  0
   -2.0437   -1.9745   -0.0318 H   0  0  0  0  0  0  0  0  0  0  0  0
   -3.7015   -1.4225   -0.1769 H   0  0  0  0  0  0  0  0  0  0  0  0
   -2.9810   -0.1222    1.9286 H   0  0  0  0  0  0  0  0  0  0  0  0
   -0.7602    0.8678    1.7725 H   0  0  0  0  0  0  0  0  0  0  0  0
   -0.7404   -0.9640    1.8508 H   0  0  0  0  0  0  0  0  0  0  0  0
   -1.3525   -0.4033   -1.7092 H   0  0  0  0  0  0  0  0  0  0  0  0
    0.8976   -0.4499   -3.0420 H   0  0  0  0  0  0  0  0  0  0  0  0
    1.6923    0.1586    2.2246 H   0  0  0  0  0  0  0  0  0  0  0  0
    5.0995    0.0305   -0.3209 H   0  0  0  0  0  0  0  0  0  0  0  0
    3.5783   -0.2504   -2.2880 H   0  0  0  0  0  0  0  0  0  0  0  0
   -4.4173    1.6296   -1.1052 H   0  0  0  0  0  0  0  0  0  0  0  0
  1  2  1  0
  2  3  1  0
  3  4  1  0
  4  5  2  0
  5  6  1  0
  6  7  1  0
  7  8  2  0
  8  9  1  0
  9 10  2  0
 10 11  1  0
 10 12  1  0
 12 13  2  0
  2 14  1  0
 14 15  1  0
 14 16  2  0
  8  4  1  0
 13  7  1  0
  1 17  1  0
  1 18  1  0
  2 19  1  1
  3 20  1  0
  3 21  1  0
  5 22  1  0
  6 23  1  0
  9 24  1  0
 12 25  1  0
 13 26  1  0
 15 27  1  0
M  END
$$$$
