
     RDKit          3D

 35 37  0  0  0  0  0  0  0  0999 V2000
    5.4826    0.4161   -0.3180 C   0  0  0  0  0  0  0  0  0  0  0  0
    4.0712    0.8394   -0.4612 C   0  0  0  0  0  0  0  0  0  0  0  0
    3.8613    1.9694   -0.9707 O   0  0  0  0  0  0  0  0  0  0  0  0
    3.0097    0.0124   -0.0448 N   0  0  0  0  0  0  0  0  0  0  0  0
    3.1267   -1.2839    0.5444 C   0  0  0  0  0  0  0  0  0  0  0  0
    1.7792   -1.6070    1.1342 C   0  0  0  0  0  0  0  0  0  0  0  0
    0.8660   -0.5954    0.5401 C   0  0  0  0  0  0  0  0  0  0  0  0
   -0.5182   -0.4859    0.5846 C   0  0  0  0  0  0  0  0  0  0  0  0
   -1.1865    0.5431   -0.0419 C   0  0  0  0  0  0  0  0  0  0  0  0
   -2.6357    0.6990   -0.0240 C   0  0  0  0  0  0  0  0  0  0  0  0
   -3.2258    1.9409    0.2309 C   0  0  0  0  0  0  0  0  0  0  0  0
   -4.5406    2.1227    0.2571 N   0  0  0  0  0  0  0  0  0  0  0  0
   -5.3692    1.0856    0.0322 C   0  0  0  0  0  0  0  0  0  0  0  0
   -4.8445   -0.1520   -0.2224 C   0  0  0  0  0  0  0  0  0  0  0  0
   -3.4957   -0.3495   -0.2516 C   0  0  0  0  0  0  0  0  0  0  0  0
   -2.9771   -1.7046   -0.5325 C   0  0  0  0  0  0  0  0  0  0  0  0
   -0.4288    1.4676   -0.7197 C   0  0  0  0  0  0  0  0  0  0  0  0
    0.9666    1.3687   -0.7722 C   0  0  0  0  0  0  0  0  0  0  0  0
    1.6141    0.3439   -0.1467 C   0  0  0  0  0  0  0  0  0  0  0  0
    5.8548    0.5446    0.7259 H   0  0  0  0  0  0  0  0  0  0  0  0
    6.1552    1.0095   -0.9705 H   0  0  0  0  0  0  0  0  0  0  0  0
    5.5731   -0.6391   -0.6561 H   0  0  0  0  0  0  0  0  0  0  0  0
    3.3735   -2.0270   -0.2433 H   0  0  0  0  0  0  0  0  0  0  0  0
    3.9204   -1.3532    1.3146 H   0  0  0  0  0  0  0  0  0  0  0  0
    1.4375   -2.6218    0.8008 H   0  0  0  0  0  0  0  0  0  0  0  0
    1.7798   -1.5916    2.2385 H   0  0  0  0  0  0  0  0  0  0  0  0
   -1.0690   -1.2419    1.1341 H   0  0  0  0  0  0  0  0  0  0  0  0
   -2.5466    2.7617    0.4091 H   0  0  0  0  0  0  0  0  0  0  0  0
   -6.4370    1.2927    0.0659 H   0  0  0  0  0  0  0  0  0  0  0  0
   -5.5589   -0.9618   -0.3986 H   0  0  0  0  0  0  0  0  0  0  0  0
   -3.6876   -2.1596   -1.2834 H   0  0  0  0  0  0  0  0  0  0  0  0
   -1.9934   -1.7124   -1.0267 H   0  0  0  0  0  0  0  0  0  0  0  0
   -3.0539   -2.3407    0.3588 H   0  0  0  0  0  0  0  0  0  0  0  0
   -0.8562    2.3101   -1.2428 H   0  0  0  0  0  0  0  0  0  0  0  0
    1.5530    2.1001   -1.3074 H   0  0  0  0  0  0  0  0  0  0  0  0
  1  2  1  0
  2  3  2  0
  2  4  1  0
  4  5  1  0
  5  6  1  0
  6  7  1  0
  7  8  2  0
  8  9  1  0
  9 10  1  0
 10 11  2  0
 11 12  1  0
 12 13  2  0
 13 14  1  0
 14 15  2  0
 15 16  1  0
  9 17  2  0
 17 18  1  0
 18 19  2  0
 19  4  1  0
 19  7  1  0
 15 10  1  0
  1 20  1  0
  1 21  1  0
  1 22  1  0
  5 23  1  0
  5 24  1  0
  6 25  1  0
  6 26  1  0
  8 27  1  0
 11 28  1  0
 13 29  1  0
 14 30  1  0
 16 31  1  0
 16 32  1  0
 16 33  1  0
 17 34  1  0
 18 35  1  0
M  END
$$$$
