
     RDKit          3D

103105  0  0  0  0  0  0  0  0999 V2000
    1.6297    5.3007   -0.9545 C   0  0  0  0  0  0  0  0  0  0  0  0
    2.9096    4.7267   -0.8188 O   0  0  0  0  0  0  0  0  0  0  0  0
    3.2015    3.6861    0.0145 C   0  0  0  0  0  0  0  0  0  0  0  0
    4.4382    3.1060    0.1678 C   0  0  0  0  0  0  0  0  0  0  0  0
    4.7970    2.0616    0.9825 C   0  0  0  0  0  0  0  0  0  0  0  0
    3.7522    1.5383    1.7439 C   0  0  0  0  0  0  0  0  0  0  0  0
    3.9251    0.3815    2.6721 C   0  0  0  0  0  0  0  0  0  0  0  0
    3.6585   -0.9206    1.9118 C   0  0  2  0  0  0  0  0  0  0  0  0
    4.6234   -1.0108    0.7942 N   0  0  0  0  0  0  0  0  0  0  0  0
    5.5976   -2.0333    0.8650 C   0  0  0  0  0  0  0  0  0  0  0  0
    5.6778   -2.8568    1.8359 O   0  0  0  0  0  0  0  0  0  0  0  0
    6.6669   -2.3302   -0.1339 C   0  0  0  0  0  0  0  0  0  0  0  0
    7.5912   -3.4257    0.3289 C   0  0  0  0  0  0  0  0  0  0  0  0
    8.6429   -3.6817   -0.7592 C   0  0  0  0  0  0  0  0  0  0  0  0
    8.3213   -2.8578    1.5565 C   0  0  0  0  0  0  0  0  0  0  0  0
    6.9383   -4.6642    0.6060 N   0  0  0  0  0  0  0  0  0  0  0  0
    2.3384   -0.9318    1.2990 C   0  0  0  0  0  0  0  0  0  0  0  0
    2.8978   -0.8352    0.1328 O   0  0  0  0  0  0  0  0  0  0  0  0
    0.9348   -0.9887    1.3544 N   0  0  0  0  0  0  0  0  0  0  0  0
    0.1029   -0.9260    0.1502 C   0  0  1  0  0  0  0  0  0  0  0  0
   -0.0744   -2.3659   -0.2641 C   0  0  0  0  0  0  0  0  0  0  0  0
   -0.6985   -3.2243    0.7527 C   0  0  0  0  0  0  0  0  0  0  0  0
   -0.8170   -4.5636    0.3745 C   0  0  0  0  0  0  0  0  0  0  0  0
   -1.3727   -5.2568    1.3765 N   0  0  0  0  0  0  0  0  0  0  0  0
   -1.6141   -4.4112    2.3788 C   0  0  0  0  0  0  0  0  0  0  0  0
   -1.2149   -3.1836    2.0187 N   0  0  0  0  0  0  0  0  0  0  0  0
   -1.0869   -0.1394    0.3605 C   0  0  0  0  0  0  0  0  0  0  0  0
   -1.5709    0.2704    1.4364 O   0  0  0  0  0  0  0  0  0  0  0  0
   -1.9223    0.3135   -0.7370 N   0  0  0  0  0  0  0  0  0  0  0  0
   -3.1297    1.1296   -0.5209 C   0  0  1  0  0  0  0  0  0  0  0  0
   -2.6271    2.5485   -0.3448 C   0  0  0  0  0  0  0  0  0  0  0  0
   -3.5881    3.6419   -0.1163 C   0  0  0  0  0  0  0  0  0  0  0  0
   -4.5106    3.5023    1.0507 C   0  0  0  0  0  0  0  0  0  0  0  0
   -5.8748    4.0309    0.8915 C   0  0  0  0  0  0  0  0  0  0  0  0
   -6.3449    4.3176   -0.4998 C   0  0  0  0  0  0  0  0  0  0  0  0
   -5.3048    5.1849   -1.1559 C   0  0  0  0  0  0  0  0  0  0  0  0
   -4.0425    4.3771   -1.3059 C   0  0  0  0  0  0  0  0  0  0  0  0
   -4.1932    0.9207   -1.5039 C   0  0  1  0  0  0  0  0  0  0  0  0
   -3.7991    1.1248   -2.8377 O   0  0  0  0  0  0  0  0  0  0  0  0
   -5.1791   -0.1668   -1.4333 C   0  0  1  0  0  0  0  0  0  0  0  0
   -6.3001    0.2739   -2.2365 O   0  0  0  0  0  0  0  0  0  0  0  0
   -4.9042   -1.5384   -1.8559 C   0  0  0  0  0  0  0  0  0  0  0  0
   -3.8829   -2.3695   -1.1969 C   0  0  0  0  0  0  0  0  0  0  0  0
   -3.8215   -3.7821   -1.8463 C   0  0  0  0  0  0  0  0  0  0  0  0
   -4.2196   -2.6655    0.2612 C   0  0  0  0  0  0  0  0  0  0  0  0
    2.4745    2.0489    1.6651 C   0  0  0  0  0  0  0  0  0  0  0  0
    2.2180    3.0961    0.8192 C   0  0  0  0  0  0  0  0  0  0  0  0
    1.6746    5.9777   -1.8456 H   0  0  0  0  0  0  0  0  0  0  0  0
    0.8101    4.5651   -1.0899 H   0  0  0  0  0  0  0  0  0  0  0  0
    1.3409    5.9488   -0.0815 H   0  0  0  0  0  0  0  0  0  0  0  0
    5.2757    3.5055   -0.4271 H   0  0  0  0  0  0  0  0  0  0  0  0
    5.7735    1.6448    1.0688 H   0  0  0  0  0  0  0  0  0  0  0  0
    4.9339    0.3305    3.1196 H   0  0  0  0  0  0  0  0  0  0  0  0
    3.1907    0.4215    3.4953 H   0  0  0  0  0  0  0  0  0  0  0  0
    3.9069   -1.7429    2.5936 H   0  0  0  0  0  0  0  0  0  0  0  0
    4.7609   -0.4735   -0.0711 H   0  0  0  0  0  0  0  0  0  0  0  0
    7.2089   -1.3813   -0.3223 H   0  0  0  0  0  0  0  0  0  0  0  0
    6.1947   -2.6346   -1.0901 H   0  0  0  0  0  0  0  0  0  0  0  0
    8.6228   -2.8155   -1.4305 H   0  0  0  0  0  0  0  0  0  0  0  0
    9.6594   -3.7766   -0.3312 H   0  0  0  0  0  0  0  0  0  0  0  0
    8.3434   -4.5822   -1.3574 H   0  0  0  0  0  0  0  0  0  0  0  0
    7.8583   -3.1215    2.5028 H   0  0  0  0  0  0  0  0  0  0  0  0
    8.4951   -1.7635    1.4292 H   0  0  0  0  0  0  0  0  0  0  0  0
    9.3550   -3.3137    1.5157 H   0  0  0  0  0  0  0  0  0  0  0  0
    6.9820   -4.9413    1.6150 H   0  0  0  0  0  0  0  0  0  0  0  0
    7.1642   -5.4443   -0.0543 H   0  0  0  0  0  0  0  0  0  0  0  0
    0.8661   -1.0738    2.4186 H   0  0  0  0  0  0  0  0  0  0  0  0
    0.7679   -0.4904   -0.6360 H   0  0  0  0  0  0  0  0  0  0  0  0
    0.9863   -2.7487   -0.3903 H   0  0  0  0  0  0  0  0  0  0  0  0
   -0.5158   -2.4826   -1.2690 H   0  0  0  0  0  0  0  0  0  0  0  0
   -0.5700   -5.1644   -0.5125 H   0  0  0  0  0  0  0  0  0  0  0  0
   -2.0519   -4.5357    3.3710 H   0  0  0  0  0  0  0  0  0  0  0  0
   -1.2049   -2.2594    2.4479 H   0  0  0  0  0  0  0  0  0  0  0  0
   -1.6365    0.0345   -1.7231 H   0  0  0  0  0  0  0  0  0  0  0  0
   -3.4823    0.7765    0.4878 H   0  0  0  0  0  0  0  0  0  0  0  0
   -2.0636    2.7649   -1.3025 H   0  0  0  0  0  0  0  0  0  0  0  0
   -1.7815    2.4886    0.4126 H   0  0  0  0  0  0  0  0  0  0  0  0
   -2.8296    4.4540    0.3474 H   0  0  0  0  0  0  0  0  0  0  0  0
   -4.5748    2.3894    1.2512 H   0  0  0  0  0  0  0  0  0  0  0  0
   -4.0951    3.8967    1.9945 H   0  0  0  0  0  0  0  0  0  0  0  0
   -6.6740    3.3709    1.3531 H   0  0  0  0  0  0  0  0  0  0  0  0
   -6.0187    4.9931    1.4704 H   0  0  0  0  0  0  0  0  0  0  0  0
   -6.6297    3.4378   -1.0979 H   0  0  0  0  0  0  0  0  0  0  0  0
   -7.2661    4.9619   -0.4108 H   0  0  0  0  0  0  0  0  0  0  0  0
   -5.6422    5.4600   -2.1589 H   0  0  0  0  0  0  0  0  0  0  0  0
   -5.1581    6.0805   -0.5141 H   0  0  0  0  0  0  0  0  0  0  0  0
   -3.2764    5.1828   -1.6334 H   0  0  0  0  0  0  0  0  0  0  0  0
   -4.1196    3.7777   -2.2224 H   0  0  0  0  0  0  0  0  0  0  0  0
   -4.8870    1.8996   -1.3359 H   0  0  0  0  0  0  0  0  0  0  0  0
   -4.6057    1.4052   -3.3788 H   0  0  0  0  0  0  0  0  0  0  0  0
   -5.6362   -0.1098   -0.3968 H   0  0  0  0  0  0  0  0  0  0  0  0
   -6.0923   -0.0337   -3.1768 H   0  0  0  0  0  0  0  0  0  0  0  0
   -5.8643   -2.1580   -1.8424 H   0  0  0  0  0  0  0  0  0  0  0  0
   -4.6649   -1.5678   -2.9784 H   0  0  0  0  0  0  0  0  0  0  0  0
   -2.8408   -2.0479   -1.2349 H   0  0  0  0  0  0  0  0  0  0  0  0
   -3.1328   -3.6840   -2.7036 H   0  0  0  0  0  0  0  0  0  0  0  0
   -3.3129   -4.4525   -1.1194 H   0  0  0  0  0  0  0  0  0  0  0  0
   -4.8166   -4.1398   -2.1093 H   0  0  0  0  0  0  0  0  0  0  0  0
   -3.9923   -1.8471    0.9426 H   0  0  0  0  0  0  0  0  0  0  0  0
   -3.5776   -3.5243    0.5294 H   0  0  0  0  0  0  0  0  0  0  0  0
   -5.2753   -3.0408    0.3135 H   0  0  0  0  0  0  0  0  0  0  0  0
    1.6688    1.6298    2.2678 H   0  0  0  0  0  0  0  0  0  0  0  0
    1.2055    3.5019    0.7536 H   0  0  0  0  0  0  0  0  0  0  0  0
  1  2  1  0
  2  3  1  0
  3  4  2  0
  4  5  1  0
  5  6  2  0
  6  7  1  0
  7  8  1  0
  8  9  1  0
  9 10  1  0
 10 11  2  0
 10 12  1  0
 12 13  1  0
 13 14  1  0
 13 15  1  0
 13 16  1  0
  8 17  1  0
 17 18  2  0
 17 19  1  0
 19 20  1  0
 20 21  1  0
 21 22  1  0
 22 23  2  0
 23 24  1  0
 24 25  2  0
 25 26  1  0
 20 27  1  0
 27 28  2  0
 27 29  1  0
 29 30  1  0
 30 31  1  0
 31 32  1  0
 32 33  1  0
 33 34  1  0
 34 35  1  0
 35 36  1  0
 36 37  1  0
 30 38  1  0
 38 39  1  0
 38 40  1  0
 40 41  1  0
 40 42  1  0
 42 43  1  0
 43 44  1  0
 43 45  1  0
  6 46  1  0
 46 47  2  0
 47  3  1  0
 26 22  1  0
 37 32  1  0
  1 48  1  0
  1 49  1  0
  1 50  1  0
  4 51  1  0
  5 52  1  0
  7 53  1  0
  7 54  1  0
  8 55  1  1
  9 56  1  0
 12 57  1  0
 12 58  1  0
 14 59  1  0
 14 60  1  0
 14 61  1  0
 15 62  1  0
 15 63  1  0
 15 64  1  0
 16 65  1  0
 16 66  1  0
 19 67  1  0
 20 68  1  6
 21 69  1  0
 21 70  1  0
 23 71  1  0
 25 72  1  0
 26 73  1  0
 29 74  1  0
 30 75  1  1
 31 76  1  0
 31 77  1  0
 32 78  1  0
 33 79  1  0
 33 80  1  0
 34 81  1  0
 34 82  1  0
 35 83  1  0
 35 84  1  0
 36 85  1  0
 36 86  1  0
 37 87  1  0
 37 88  1  0
 38 89  1  1
 39 90  1  0
 40 91  1  1
 41 92  1  0
 42 93  1  0
 42 94  1  0
 43 95  1  0
 44 96  1  0
 44 97  1  0
 44 98  1  0
 45 99  1  0
 45100  1  0
 45101  1  0
 46102  1  0
 47103  1  0
M  END
$$$$
