
     RDKit          3D

 47 49  0  0  0  0  0  0  0  0999 V2000
   -6.6744    2.6515    0.7367 N   0  0  0  0  0  0  0  0  0  0  0  0
   -6.2921    1.4830    0.0104 C   0  0  0  0  0  0  0  0  0  0  0  0
   -4.9991    1.1135    0.0482 N   0  0  0  0  0  0  0  0  0  0  0  0
   -4.5290    0.0308   -0.5983 C   0  0  0  0  0  0  0  0  0  0  0  0
   -5.4626   -0.6795   -1.3057 C   0  0  0  0  0  0  0  0  0  0  0  0
   -4.8356   -1.7216   -1.8882 N   0  0  0  0  0  0  0  0  0  0  0  0
   -3.5232   -1.6545   -1.5420 C   0  0  0  0  0  0  0  0  0  0  0  0
   -3.3228   -0.5774   -0.7465 N   0  0  0  0  0  0  0  0  0  0  0  0
   -2.1770   -0.0214   -0.0979 C   0  0  1  0  0  0  0  0  0  0  0  0
   -2.1040   -0.3199    1.3717 C   0  0  0  0  0  0  0  0  0  0  0  0
   -0.6124   -0.1538    1.6348 C   0  0  2  0  0  0  0  0  0  0  0  0
   -0.4645    0.9166    2.4949 O   0  0  0  0  0  0  0  0  0  0  0  0
   -0.0705    0.1191    0.2588 C   0  0  1  0  0  0  0  0  0  0  0  0
    1.3428   -0.3577    0.0827 C   0  0  0  0  0  0  0  0  0  0  0  0
    1.5002   -1.6911    0.3754 O   0  0  0  0  0  0  0  0  0  0  0  0
    3.1136   -2.1442    0.1522 P   0  0  0  0  0  0  0  0  0  0  0  0
    3.8669   -2.2400    1.6456 O   0  0  0  0  0  0  0  0  0  0  0  0
    3.1117   -3.4891   -0.5375 O   0  0  0  0  0  0  0  0  0  0  0  0
    3.9370   -1.0483   -0.8328 O   0  0  0  0  0  0  0  0  0  0  0  0
    5.3871   -0.5466   -0.1360 P   0  0  0  0  0  0  0  0  0  0  0  0
    5.2641    1.0523    0.4407 O   0  0  0  0  0  0  0  0  0  0  0  0
    5.7782   -1.4095    1.0406 O   0  0  0  0  0  0  0  0  0  0  0  0
    6.6542   -0.6000   -1.2604 O   0  0  0  0  0  0  0  0  0  0  0  0
    7.8238    0.5831   -0.9647 P   0  0  0  0  0  0  0  0  0  0  0  0
    7.7885    1.6823   -2.2512 O   0  0  0  0  0  0  0  0  0  0  0  0
    9.3683   -0.0798   -0.8174 O   0  0  0  0  0  0  0  0  0  0  0  0
    7.5402    1.3439    0.3099 O   0  0  0  0  0  0  0  0  0  0  0  0
   -0.9779   -0.5564   -0.5558 O   0  0  0  0  0  0  0  0  0  0  0  0
   -6.8023   -0.2963   -1.3446 C   0  0  0  0  0  0  0  0  0  0  0  0
   -7.6312   -0.9961   -2.0209 O   0  0  0  0  0  0  0  0  0  0  0  0
   -7.2248    0.8005   -0.6775 N   0  0  0  0  0  0  0  0  0  0  0  0
   -6.0479    3.4755    0.8825 H   0  0  0  0  0  0  0  0  0  0  0  0
   -7.6057    2.8016    1.1906 H   0  0  0  0  0  0  0  0  0  0  0  0
   -2.7050   -2.2971   -1.8026 H   0  0  0  0  0  0  0  0  0  0  0  0
   -2.1438    1.0723   -0.2470 H   0  0  0  0  0  0  0  0  0  0  0  0
   -2.7193    0.4166    1.9108 H   0  0  0  0  0  0  0  0  0  0  0  0
   -2.4570   -1.3316    1.6452 H   0  0  0  0  0  0  0  0  0  0  0  0
   -0.2160   -1.0509    2.1137 H   0  0  0  0  0  0  0  0  0  0  0  0
   -0.8056    1.7451    2.0448 H   0  0  0  0  0  0  0  0  0  0  0  0
   -0.1194    1.1970    0.0874 H   0  0  0  0  0  0  0  0  0  0  0  0
    1.9786    0.2964    0.7045 H   0  0  0  0  0  0  0  0  0  0  0  0
    1.6115   -0.1754   -0.9873 H   0  0  0  0  0  0  0  0  0  0  0  0
    3.3858   -1.7076    2.3217 H   0  0  0  0  0  0  0  0  0  0  0  0
    4.3603    1.3887    0.2728 H   0  0  0  0  0  0  0  0  0  0  0  0
    7.0098    1.5217   -2.8422 H   0  0  0  0  0  0  0  0  0  0  0  0
    9.9274    0.3525   -0.1360 H   0  0  0  0  0  0  0  0  0  0  0  0
   -8.2268    1.1017   -0.6965 H   0  0  0  0  0  0  0  0  0  0  0  0
  1  2  1  0
  2  3  2  0
  3  4  1  0
  4  5  2  0
  5  6  1  0
  6  7  2  0
  7  8  1  0
  8  9  1  0
  9 10  1  0
 10 11  1  0
 11 12  1  0
 11 13  1  0
 13 14  1  0
 14 15  1  0
 15 16  1  0
 16 17  1  0
 16 18  2  0
 16 19  1  0
 19 20  1  0
 20 21  1  0
 20 22  2  0
 20 23  1  0
 23 24  1  0
 24 25  1  0
 24 26  1  0
 24 27  2  0
 13 28  1  0
  5 29  1  0
 29 30  2  0
 29 31  1  0
 31  2  1  0
  8  4  1  0
 28  9  1  0
  1 32  1  0
  1 33  1  0
  7 34  1  0
  9 35  1  1
 10 36  1  0
 10 37  1  0
 11 38  1  1
 12 39  1  0
 13 40  1  6
 14 41  1  0
 14 42  1  0
 17 43  1  0
 21 44  1  0
 25 45  1  0
 26 46  1  0
 31 47  1  0
M  END
$$$$
