
     RDKit          3D

 32 34  0  0  0  0  0  0  0  0999 V2000
   -4.8145    1.9463   -1.9375 O   0  0  0  0  0  0  0  0  0  0  0  0
   -3.9939    1.1549   -1.1152 C   0  0  0  0  0  0  0  0  0  0  0  0
   -2.6154    1.2279   -1.2616 C   0  0  0  0  0  0  0  0  0  0  0  0
   -1.8327    0.4257   -0.4256 C   0  0  0  0  0  0  0  0  0  0  0  0
   -2.4655   -0.3773    0.4798 C   0  0  0  0  0  0  0  0  0  0  0  0
   -3.8304   -0.4446    0.6192 C   0  0  0  0  0  0  0  0  0  0  0  0
   -4.3595   -1.3004    1.5771 O   0  0  0  0  0  0  0  0  0  0  0  0
   -4.6320    0.3378   -0.1942 C   0  0  0  0  0  0  0  0  0  0  0  0
   -1.5980   -1.1230    1.2500 C   0  0  0  0  0  0  0  0  0  0  0  0
   -2.0469   -1.9113    2.1305 O   0  0  0  0  0  0  0  0  0  0  0  0
   -0.2472   -0.9795    1.0283 C   0  0  0  0  0  0  0  0  0  0  0  0
    0.5693   -1.7542    1.8326 O   0  0  0  0  0  0  0  0  0  0  0  0
    0.3342   -0.1690    0.1172 C   0  0  0  0  0  0  0  0  0  0  0  0
   -0.5369    0.5195   -0.5906 O   0  0  0  0  0  0  0  0  0  0  0  0
    1.7360    0.0274   -0.1648 C   0  0  0  0  0  0  0  0  0  0  0  0
    2.0747    0.9270   -1.1616 C   0  0  0  0  0  0  0  0  0  0  0  0
    3.3724    1.2079   -1.5306 C   0  0  0  0  0  0  0  0  0  0  0  0
    4.4226    0.5798   -0.8969 C   0  0  0  0  0  0  0  0  0  0  0  0
    5.7201    0.8687   -1.2746 O   0  0  0  0  0  0  0  0  0  0  0  0
    4.1335   -0.3107    0.0876 C   0  0  0  0  0  0  0  0  0  0  0  0
    5.1647   -0.9613    0.7468 O   0  0  0  0  0  0  0  0  0  0  0  0
    2.8207   -0.5500    0.4120 C   0  0  0  0  0  0  0  0  0  0  0  0
   -4.9519    1.5968   -2.8977 H   0  0  0  0  0  0  0  0  0  0  0  0
   -2.1670    1.8763   -1.9896 H   0  0  0  0  0  0  0  0  0  0  0  0
   -4.7233   -2.1760    1.2797 H   0  0  0  0  0  0  0  0  0  0  0  0
   -5.7085    0.3039   -0.1050 H   0  0  0  0  0  0  0  0  0  0  0  0
    0.3752   -2.7118    2.0395 H   0  0  0  0  0  0  0  0  0  0  0  0
    1.3239    1.4829   -1.7312 H   0  0  0  0  0  0  0  0  0  0  0  0
    3.6060    1.9141   -2.3116 H   0  0  0  0  0  0  0  0  0  0  0  0
    6.4043    1.2033   -0.6220 H   0  0  0  0  0  0  0  0  0  0  0  0
    5.8096   -1.5670    0.2764 H   0  0  0  0  0  0  0  0  0  0  0  0
    2.6565   -1.2642    1.1985 H   0  0  0  0  0  0  0  0  0  0  0  0
  1  2  1  0
  2  3  2  0
  3  4  1  0
  4  5  2  0
  5  6  1  0
  6  7  1  0
  6  8  2  0
  5  9  1  0
  9 10  2  0
  9 11  1  0
 11 12  1  0
 11 13  2  0
 13 14  1  0
 13 15  1  0
 15 16  2  0
 16 17  1  0
 17 18  2  0
 18 19  1  0
 18 20  1  0
 20 21  1  0
 20 22  2  0
  8  2  1  0
 22 15  1  0
 14  4  1  0
  1 23  1  0
  3 24  1  0
  7 25  1  0
  8 26  1  0
 12 27  1  0
 16 28  1  0
 17 29  1  0
 19 30  1  0
 21 31  1  0
 22 32  1  0
M  END
$$$$
