
     RDKit          3D

 53 55  0  0  0  0  0  0  0  0999 V2000
   -0.1093   -0.1464   -1.3741 C   0  0  0  0  0  0  0  0  0  0  0  0
   -0.8256   -0.3949   -0.0857 C   0  0  0  0  0  0  0  0  0  0  0  0
   -2.0782    0.2548    0.0233 C   0  0  0  0  0  0  0  0  0  0  0  0
   -2.8613    0.1159    1.1351 C   0  0  0  0  0  0  0  0  0  0  0  0
   -4.0394    0.6715    1.3436 O   0  0  0  0  0  0  0  0  0  0  0  0
   -5.0444    1.4361    0.9552 C   0  0  0  0  0  0  0  0  0  0  0  0
   -5.7957    1.0817   -0.2634 C   0  0  0  0  0  0  0  0  0  0  0  0
   -6.9347    0.2957   -0.1019 C   0  0  0  0  0  0  0  0  0  0  0  0
   -7.6764   -0.1279   -1.1726 C   0  0  0  0  0  0  0  0  0  0  0  0
   -7.3130    0.2158   -2.4626 C   0  0  0  0  0  0  0  0  0  0  0  0
   -8.0542   -0.2126   -3.4964 F   0  0  0  0  0  0  0  0  0  0  0  0
   -6.1874    0.9936   -2.6218 C   0  0  0  0  0  0  0  0  0  0  0  0
   -5.4265    1.4294   -1.5279 C   0  0  0  0  0  0  0  0  0  0  0  0
   -4.3612    2.2184   -1.7579 F   0  0  0  0  0  0  0  0  0  0  0  0
   -2.3229   -0.7082    2.1331 C   0  0  0  0  0  0  0  0  0  0  0  0
   -3.3392   -0.9606    3.7140 Br  0  0  0  0  0  0  0  0  0  0  0  0
   -1.1090   -1.3244    2.0021 C   0  0  0  0  0  0  0  0  0  0  0  0
   -0.6225   -2.0668    2.8946 O   0  0  0  0  0  0  0  0  0  0  0  0
   -0.3555   -1.1663    0.8856 N   0  0  0  0  0  0  0  0  0  0  0  0
    0.8985   -1.8347    0.7821 C   0  0  0  0  0  0  0  0  0  0  0  0
    2.0768   -1.1601    1.3059 C   0  0  0  0  0  0  0  0  0  0  0  0
    2.5203   -1.4283    2.5821 C   0  0  0  0  0  0  0  0  0  0  0  0
    3.6472   -0.7876    3.0910 C   0  0  0  0  0  0  0  0  0  0  0  0
    4.3502    0.1263    2.3436 C   0  0  0  0  0  0  0  0  0  0  0  0
    3.9199    0.4124    1.0506 C   0  0  0  0  0  0  0  0  0  0  0  0
    4.6798    1.4097    0.2520 C   0  0  0  0  0  0  0  0  0  0  0  0
    5.7600    0.8526   -0.5121 N   0  0  0  0  0  0  0  0  0  0  0  0
    5.6121    0.1522   -1.7268 C   0  0  0  0  0  0  0  0  0  0  0  0
    4.5014   -0.0385   -2.2404 O   0  0  0  0  0  0  0  0  0  0  0  0
    6.7904   -0.4030   -2.4710 C   0  0  0  0  0  0  0  0  0  0  0  0
    7.9627   -0.1244   -1.7956 O   0  0  0  0  0  0  0  0  0  0  0  0
    2.7840   -0.2479    0.5683 C   0  0  0  0  0  0  0  0  0  0  0  0
    0.6319   -0.9253   -1.5591 H   0  0  0  0  0  0  0  0  0  0  0  0
   -0.8412   -0.2011   -2.2180 H   0  0  0  0  0  0  0  0  0  0  0  0
    0.3751    0.8588   -1.3456 H   0  0  0  0  0  0  0  0  0  0  0  0
   -2.4154    0.8730   -0.7913 H   0  0  0  0  0  0  0  0  0  0  0  0
   -5.8058    1.5161    1.7904 H   0  0  0  0  0  0  0  0  0  0  0  0
   -4.7651    2.5443    0.7981 H   0  0  0  0  0  0  0  0  0  0  0  0
   -7.2385    0.0152    0.8957 H   0  0  0  0  0  0  0  0  0  0  0  0
   -8.5542   -0.7378   -0.9962 H   0  0  0  0  0  0  0  0  0  0  0  0
   -5.8861    1.2730   -3.6153 H   0  0  0  0  0  0  0  0  0  0  0  0
    1.0000   -2.2431   -0.2476 H   0  0  0  0  0  0  0  0  0  0  0  0
    0.7954   -2.8219    1.3877 H   0  0  0  0  0  0  0  0  0  0  0  0
    2.0393   -2.1386    3.2487 H   0  0  0  0  0  0  0  0  0  0  0  0
    3.9902   -1.0115    4.1111 H   0  0  0  0  0  0  0  0  0  0  0  0
    5.2231    0.6231    2.7388 H   0  0  0  0  0  0  0  0  0  0  0  0
    3.9249    1.8494   -0.4618 H   0  0  0  0  0  0  0  0  0  0  0  0
    5.0052    2.2557    0.8916 H   0  0  0  0  0  0  0  0  0  0  0  0
    6.7464    0.9590   -0.1624 H   0  0  0  0  0  0  0  0  0  0  0  0
    6.6937   -1.4928   -2.5932 H   0  0  0  0  0  0  0  0  0  0  0  0
    6.8110    0.1105   -3.4565 H   0  0  0  0  0  0  0  0  0  0  0  0
    8.7153    0.1473   -2.3694 H   0  0  0  0  0  0  0  0  0  0  0  0
    2.5078    0.0133   -0.4246 H   0  0  0  0  0  0  0  0  0  0  0  0
  1  2  1  0
  2  3  2  0
  3  4  1  0
  4  5  1  0
  5  6  1  0
  6  7  1  0
  7  8  2  0
  8  9  1  0
  9 10  2  0
 10 11  1  0
 10 12  1  0
 12 13  2  0
 13 14  1  0
  4 15  2  0
 15 16  1  0
 15 17  1  0
 17 18  2  0
 17 19  1  0
 19 20  1  0
 20 21  1  0
 21 22  2  0
 22 23  1  0
 23 24  2  0
 24 25  1  0
 25 26  1  0
 26 27  1  0
 27 28  1  0
 28 29  2  0
 28 30  1  0
 30 31  1  0
 25 32  2  0
 19  2  1  0
 32 21  1  0
 13  7  1  0
  1 33  1  0
  1 34  1  0
  1 35  1  0
  3 36  1  0
  6 37  1  0
  6 38  1  0
  8 39  1  0
  9 40  1  0
 12 41  1  0
 20 42  1  0
 20 43  1  0
 22 44  1  0
 23 45  1  0
 24 46  1  0
 26 47  1  0
 26 48  1  0
 27 49  1  0
 30 50  1  0
 30 51  1  0
 31 52  1  0
 32 53  1  0
M  END
$$$$
