
     RDKit          3D

 69 74  0  0  0  0  0  0  0  0999 V2000
   10.9812   -1.7025   -0.1550 C   0  0  0  0  0  0  0  0  0  0  0  0
   10.6944   -1.5415   -1.5208 O   0  0  0  0  0  0  0  0  0  0  0  0
   10.2990   -0.2363   -1.7983 C   0  0  0  0  0  0  0  0  0  0  0  0
    9.0768    0.0995   -1.0108 C   0  0  0  0  0  0  0  0  0  0  0  0
    7.7810   -0.0634   -1.3352 N   0  0  0  0  0  0  0  0  0  0  0  0
    6.9838    0.3689   -0.3440 C   0  0  0  0  0  0  0  0  0  0  0  0
    5.5110    0.3682   -0.2925 C   0  0  0  0  0  0  0  0  0  0  0  0
    4.8454   -0.7275    0.2085 C   0  0  0  0  0  0  0  0  0  0  0  0
    3.4431   -0.7566    0.2738 C   0  0  0  0  0  0  0  0  0  0  0  0
    2.7105    0.3149   -0.1642 C   0  0  0  0  0  0  0  0  0  0  0  0
    1.2935    0.2894   -0.0973 N   0  0  0  0  0  0  0  0  0  0  0  0
    0.4787    0.7255    1.0038 C   0  0  0  0  0  0  0  0  0  0  0  0
    0.9825    1.2042    2.0815 O   0  0  0  0  0  0  0  0  0  0  0  0
   -0.9037    0.5545    0.7305 N   0  0  0  0  0  0  0  0  0  0  0  0
   -1.8906    0.7960    1.7248 C   0  0  0  0  0  0  0  0  0  0  0  0
   -2.3208   -0.2241    2.5712 C   0  0  0  0  0  0  0  0  0  0  0  0
   -3.2643   -0.0028    3.5404 C   0  0  0  0  0  0  0  0  0  0  0  0
   -3.6306   -0.9280    4.2817 O   0  0  0  0  0  0  0  0  0  0  0  0
   -3.7856    1.2165    3.6793 N   0  0  0  0  0  0  0  0  0  0  0  0
   -3.3899    2.2353    2.8715 C   0  0  0  0  0  0  0  0  0  0  0  0
   -2.4595    1.9953    1.9237 N   0  0  0  0  0  0  0  0  0  0  0  0
   -1.0313    0.1308   -0.6431 C   0  0  0  0  0  0  0  0  0  0  0  0
   -1.8011   -1.1234   -0.8515 C   0  0  0  0  0  0  0  0  0  0  0  0
   -3.2487   -0.8915   -0.7502 C   0  0  0  0  0  0  0  0  0  0  0  0
   -3.7788    0.3936   -0.8847 N   0  0  0  0  0  0  0  0  0  0  0  0
   -5.0598    0.2904   -1.6070 C   0  0  0  0  0  0  0  0  0  0  0  0
   -6.0006   -0.5984   -0.9268 C   0  0  0  0  0  0  0  0  0  0  0  0
   -6.1805   -1.8336   -1.4219 N   0  0  0  0  0  0  0  0  0  0  0  0
   -7.0195   -2.7162   -0.8571 C   0  0  0  0  0  0  0  0  0  0  0  0
   -7.7332   -2.3770    0.2652 C   0  0  0  0  0  0  0  0  0  0  0  0
   -7.5839   -1.1236    0.8099 C   0  0  0  0  0  0  0  0  0  0  0  0
   -6.7033   -0.2345    0.1951 C   0  0  0  0  0  0  0  0  0  0  0  0
   -6.5519    1.1241    0.7927 C   0  0  0  0  0  0  0  0  0  0  0  0
   -3.0223    1.4296   -1.4588 C   0  0  0  0  0  0  0  0  0  0  0  0
   -1.5471    1.2305   -1.5330 C   0  0  0  0  0  0  0  0  0  0  0  0
    0.3723   -0.1632   -1.0754 C   0  0  0  0  0  0  0  0  0  0  0  0
    0.6399   -0.7308   -2.1580 O   0  0  0  0  0  0  0  0  0  0  0  0
    3.3676    1.4053   -0.6628 C   0  0  0  0  0  0  0  0  0  0  0  0
    4.7697    1.4370   -0.7292 C   0  0  0  0  0  0  0  0  0  0  0  0
    7.8347    0.8082    0.6115 N   0  0  0  0  0  0  0  0  0  0  0  0
    9.0577    0.6438    0.2062 O   0  0  0  0  0  0  0  0  0  0  0  0
   11.7989   -1.0256    0.1673 H   0  0  0  0  0  0  0  0  0  0  0  0
   11.1909   -2.7542    0.0857 H   0  0  0  0  0  0  0  0  0  0  0  0
   10.0961   -1.4238    0.4756 H   0  0  0  0  0  0  0  0  0  0  0  0
   10.1687   -0.1436   -2.8758 H   0  0  0  0  0  0  0  0  0  0  0  0
   11.1361    0.4206   -1.4370 H   0  0  0  0  0  0  0  0  0  0  0  0
    5.3527   -1.5970    0.5668 H   0  0  0  0  0  0  0  0  0  0  0  0
    2.9120   -1.6175    0.6677 H   0  0  0  0  0  0  0  0  0  0  0  0
   -1.8579   -1.2007    2.4093 H   0  0  0  0  0  0  0  0  0  0  0  0
   -4.5054    1.4152    4.4075 H   0  0  0  0  0  0  0  0  0  0  0  0
   -3.8432    3.2062    3.0251 H   0  0  0  0  0  0  0  0  0  0  0  0
   -1.4716   -1.5527   -1.8290 H   0  0  0  0  0  0  0  0  0  0  0  0
   -1.4850   -1.8253   -0.0201 H   0  0  0  0  0  0  0  0  0  0  0  0
   -3.6131   -1.3116    0.2382 H   0  0  0  0  0  0  0  0  0  0  0  0
   -3.7509   -1.5932   -1.4945 H   0  0  0  0  0  0  0  0  0  0  0  0
   -4.9049    0.0150   -2.6534 H   0  0  0  0  0  0  0  0  0  0  0  0
   -5.4524    1.3401   -1.6170 H   0  0  0  0  0  0  0  0  0  0  0  0
   -7.1445   -3.6925   -1.2699 H   0  0  0  0  0  0  0  0  0  0  0  0
   -8.4031   -3.0821    0.7173 H   0  0  0  0  0  0  0  0  0  0  0  0
   -8.1259   -0.8196    1.6900 H   0  0  0  0  0  0  0  0  0  0  0  0
   -6.5181    1.9153    0.0243 H   0  0  0  0  0  0  0  0  0  0  0  0
   -7.4426    1.3452    1.4219 H   0  0  0  0  0  0  0  0  0  0  0  0
   -5.6237    1.1750    1.3868 H   0  0  0  0  0  0  0  0  0  0  0  0
   -3.4301    1.6929   -2.4569 H   0  0  0  0  0  0  0  0  0  0  0  0
   -3.1901    2.3582   -0.8338 H   0  0  0  0  0  0  0  0  0  0  0  0
   -1.2759    0.9581   -2.5747 H   0  0  0  0  0  0  0  0  0  0  0  0
   -0.9615    2.1423   -1.2930 H   0  0  0  0  0  0  0  0  0  0  0  0
    2.8410    2.2808   -1.0229 H   0  0  0  0  0  0  0  0  0  0  0  0
    5.2877    2.2880   -1.1179 H   0  0  0  0  0  0  0  0  0  0  0  0
  1  2  1  0
  2  3  1  0
  3  4  1  0
  4  5  2  0
  5  6  1  0
  6  7  1  0
  7  8  2  0
  8  9  1  0
  9 10  2  0
 10 11  1  0
 11 12  1  0
 12 13  2  0
 12 14  1  0
 14 15  1  0
 15 16  2  0
 16 17  1  0
 17 18  2  0
 17 19  1  0
 19 20  1  0
 20 21  2  0
 14 22  1  0
 22 23  1  0
 23 24  1  0
 24 25  1  0
 25 26  1  0
 26 27  1  0
 27 28  2  0
 28 29  1  0
 29 30  2  0
 30 31  1  0
 31 32  2  0
 32 33  1  0
 25 34  1  0
 34 35  1  0
 22 36  1  0
 36 37  2  0
 10 38  1  0
 38 39  2  0
  6 40  2  0
 40 41  1  0
 41  4  1  0
 39  7  1  0
 36 11  1  0
 21 15  1  0
 35 22  1  0
 32 27  1  0
  1 42  1  0
  1 43  1  0
  1 44  1  0
  3 45  1  0
  3 46  1  0
  8 47  1  0
  9 48  1  0
 16 49  1  0
 19 50  1  0
 20 51  1  0
 23 52  1  0
 23 53  1  0
 24 54  1  0
 24 55  1  0
 26 56  1  0
 26 57  1  0
 29 58  1  0
 30 59  1  0
 31 60  1  0
 33 61  1  0
 33 62  1  0
 33 63  1  0
 34 64  1  0
 34 65  1  0
 35 66  1  0
 35 67  1  0
 38 68  1  0
 39 69  1  0
M  END
$$$$
