
     RDKit          3D

 66 69  0  0  0  0  0  0  0  0999 V2000
   -2.2287   -2.7662   -0.1795 C   0  0  1  0  0  0  0  0  0  0  0  0
   -1.4180   -3.2749   -1.3553 C   0  0  0  0  0  0  0  0  0  0  0  0
   -1.3458   -2.4004    0.9557 C   0  0  0  0  0  0  0  0  0  0  0  0
   -0.8518   -1.0597    0.9178 N   0  0  0  0  0  0  0  0  0  0  0  0
    0.1836   -0.8553    1.8674 C   0  0  0  0  0  0  0  0  0  0  0  0
    0.2457   -2.0192    2.3903 O   0  0  0  0  0  0  0  0  0  0  0  0
    0.9609    0.3092    2.1794 C   0  0  0  0  0  0  0  0  0  0  0  0
    0.5571    1.2282    3.1535 C   0  0  0  0  0  0  0  0  0  0  0  0
   -0.9454    0.9700    4.0334 Cl  0  0  0  0  0  0  0  0  0  0  0  0
    1.3034    2.3496    3.4564 C   0  0  0  0  0  0  0  0  0  0  0  0
    2.4855    2.5716    2.7769 C   0  0  0  0  0  0  0  0  0  0  0  0
    3.4462    3.5115    2.7894 N   0  0  0  0  0  0  0  0  0  0  0  0
    3.3919    4.6705    3.6919 C   0  0  0  0  0  0  0  0  0  0  0  0
    4.4189    3.2565    1.9020 C   0  0  0  0  0  0  0  0  0  0  0  0
    4.1098    2.0649    1.2349 C   0  0  0  0  0  0  0  0  0  0  0  0
    4.9686    1.5169    0.2136 C   0  0  0  0  0  0  0  0  0  0  0  0
    6.0404    2.0857   -0.1350 O   0  0  0  0  0  0  0  0  0  0  0  0
    4.7604    0.3130   -0.5268 C   0  0  0  0  0  0  0  0  0  0  0  0
    4.3304   -0.7514   -1.0022 O   0  0  0  0  0  0  0  0  0  0  0  0
    5.5866   -0.2265   -1.5295 N   0  0  0  0  0  0  0  0  0  0  0  0
    5.2797   -1.4583   -2.2250 C   0  0  0  0  0  0  0  0  0  0  0  0
    6.8078    0.4798   -1.8872 C   0  0  0  0  0  0  0  0  0  0  0  0
    2.9158    1.6885    1.8103 C   0  0  0  0  0  0  0  0  0  0  0  0
    2.1474    0.5862    1.5376 C   0  0  0  0  0  0  0  0  0  0  0  0
   -1.4315   -0.1531   -0.0199 C   0  0  2  0  0  0  0  0  0  0  0  0
   -1.3226    1.3035    0.3642 C   0  0  0  0  0  0  0  0  0  0  0  0
   -2.9049   -0.4568   -0.1552 C   0  0  0  0  0  0  0  0  0  0  0  0
   -3.1909   -1.7814   -0.5469 N   0  0  0  0  0  0  0  0  0  0  0  0
   -3.7900   -1.9863   -1.8188 C   0  0  0  0  0  0  0  0  0  0  0  0
   -5.0960   -1.3502   -2.0307 C   0  0  0  0  0  0  0  0  0  0  0  0
   -5.3527   -0.1064   -2.5672 C   0  0  0  0  0  0  0  0  0  0  0  0
   -6.6205    0.4116   -2.7227 C   0  0  0  0  0  0  0  0  0  0  0  0
   -7.6990   -0.3469   -2.3234 C   0  0  0  0  0  0  0  0  0  0  0  0
   -8.9071    0.2255   -2.5066 F   0  0  0  0  0  0  0  0  0  0  0  0
   -7.5298   -1.6054   -1.7755 C   0  0  0  0  0  0  0  0  0  0  0  0
   -6.2328   -2.0701   -1.6452 C   0  0  0  0  0  0  0  0  0  0  0  0
   -2.8234   -3.6673    0.1562 H   0  0  0  0  0  0  0  0  0  0  0  0
   -0.6070   -3.9239   -0.9199 H   0  0  0  0  0  0  0  0  0  0  0  0
   -2.0335   -3.9501   -1.9811 H   0  0  0  0  0  0  0  0  0  0  0  0
   -0.9208   -2.4798   -1.9148 H   0  0  0  0  0  0  0  0  0  0  0  0
   -0.4526   -3.0903    0.8947 H   0  0  0  0  0  0  0  0  0  0  0  0
   -1.8127   -2.6398    1.9485 H   0  0  0  0  0  0  0  0  0  0  0  0
    1.0280    3.0681    4.1895 H   0  0  0  0  0  0  0  0  0  0  0  0
    3.0391    4.3562    4.6820 H   0  0  0  0  0  0  0  0  0  0  0  0
    4.3695    5.1890    3.7526 H   0  0  0  0  0  0  0  0  0  0  0  0
    2.6740    5.4203    3.2629 H   0  0  0  0  0  0  0  0  0  0  0  0
    5.2893    3.8438    1.7158 H   0  0  0  0  0  0  0  0  0  0  0  0
    6.0340   -1.6585   -3.0309 H   0  0  0  0  0  0  0  0  0  0  0  0
    4.3069   -1.4502   -2.7559 H   0  0  0  0  0  0  0  0  0  0  0  0
    5.3003   -2.3338   -1.5473 H   0  0  0  0  0  0  0  0  0  0  0  0
    7.5009    0.4917   -1.0085 H   0  0  0  0  0  0  0  0  0  0  0  0
    6.6140    1.4711   -2.3137 H   0  0  0  0  0  0  0  0  0  0  0  0
    7.3839   -0.0901   -2.6740 H   0  0  0  0  0  0  0  0  0  0  0  0
    2.4438   -0.1142    0.8023 H   0  0  0  0  0  0  0  0  0  0  0  0
   -0.8896   -0.2607   -0.9806 H   0  0  0  0  0  0  0  0  0  0  0  0
   -1.9390    1.4889    1.2487 H   0  0  0  0  0  0  0  0  0  0  0  0
   -0.2896    1.6763    0.4122 H   0  0  0  0  0  0  0  0  0  0  0  0
   -1.8120    1.8725   -0.4677 H   0  0  0  0  0  0  0  0  0  0  0  0
   -3.3103    0.3186   -0.8325 H   0  0  0  0  0  0  0  0  0  0  0  0
   -3.3591   -0.2239    0.8418 H   0  0  0  0  0  0  0  0  0  0  0  0
   -3.9226   -3.1043   -1.9250 H   0  0  0  0  0  0  0  0  0  0  0  0
   -3.1352   -1.7211   -2.6753 H   0  0  0  0  0  0  0  0  0  0  0  0
   -4.5083    0.4659   -2.8756 H   0  0  0  0  0  0  0  0  0  0  0  0
   -6.7039    1.4030   -3.1569 H   0  0  0  0  0  0  0  0  0  0  0  0
   -8.3815   -2.1710   -1.4751 H   0  0  0  0  0  0  0  0  0  0  0  0
   -6.1551   -3.0605   -1.2097 H   0  0  0  0  0  0  0  0  0  0  0  0
  1  2  1  0
  1  3  1  0
  3  4  1  0
  4  5  1  0
  5  6  2  0
  5  7  1  0
  7  8  2  0
  8  9  1  0
  8 10  1  0
 10 11  2  0
 11 12  1  0
 12 13  1  0
 12 14  1  0
 14 15  2  0
 15 16  1  0
 16 17  2  0
 16 18  1  0
 18 19  2  0
 18 20  1  0
 20 21  1  0
 20 22  1  0
 15 23  1  0
 23 24  2  0
  4 25  1  0
 25 26  1  0
 25 27  1  0
 27 28  1  0
 28 29  1  0
 29 30  1  0
 30 31  2  0
 31 32  1  0
 32 33  2  0
 33 34  1  0
 33 35  1  0
 35 36  2  0
 28  1  1  0
 36 30  1  0
 24  7  1  0
 23 11  1  0
  1 37  1  1
  2 38  1  0
  2 39  1  0
  2 40  1  0
  3 41  1  0
  3 42  1  0
 10 43  1  0
 13 44  1  0
 13 45  1  0
 13 46  1  0
 14 47  1  0
 21 48  1  0
 21 49  1  0
 21 50  1  0
 22 51  1  0
 22 52  1  0
 22 53  1  0
 24 54  1  0
 25 55  1  6
 26 56  1  0
 26 57  1  0
 26 58  1  0
 27 59  1  0
 27 60  1  0
 29 61  1  0
 29 62  1  0
 31 63  1  0
 32 64  1  0
 35 65  1  0
 36 66  1  0
M  END
$$$$
