
     RDKit          3D

 46 48  0  0  0  0  0  0  0  0999 V2000
    0.9533   -1.4895   -2.2287 C   0  0  0  0  0  0  0  0  0  0  0  0
    0.3582   -1.3336   -0.8638 C   0  0  0  0  0  0  0  0  0  0  0  0
   -0.9792   -0.8964   -0.7661 C   0  0  0  0  0  0  0  0  0  0  0  0
   -1.6099   -0.7339    0.4436 C   0  0  0  0  0  0  0  0  0  0  0  0
   -2.9259   -0.3019    0.5118 O   0  0  0  0  0  0  0  0  0  0  0  0
   -3.6545   -0.0168   -0.6729 C   0  0  0  0  0  0  0  0  0  0  0  0
   -5.0315    0.4261   -0.3322 C   0  0  0  0  0  0  0  0  0  0  0  0
   -5.4321    1.7429   -0.3916 C   0  0  0  0  0  0  0  0  0  0  0  0
   -6.6980    2.1516   -0.0784 C   0  0  0  0  0  0  0  0  0  0  0  0
   -7.6541    1.2162    0.3244 C   0  0  0  0  0  0  0  0  0  0  0  0
   -8.9097    1.6019    0.6378 F   0  0  0  0  0  0  0  0  0  0  0  0
   -7.2568   -0.1134    0.3866 C   0  0  0  0  0  0  0  0  0  0  0  0
   -5.9704   -0.5085    0.0655 C   0  0  0  0  0  0  0  0  0  0  0  0
   -5.6495   -1.8247    0.1482 F   0  0  0  0  0  0  0  0  0  0  0  0
   -0.9111   -1.0072    1.5752 C   0  0  0  0  0  0  0  0  0  0  0  0
   -1.6978   -0.8139    3.3198 Br  0  0  0  0  0  0  0  0  0  0  0  0
    0.4097   -1.4383    1.4531 C   0  0  0  0  0  0  0  0  0  0  0  0
    1.0278   -1.6850    2.5031 O   0  0  0  0  0  0  0  0  0  0  0  0
    1.0273   -1.5961    0.2600 N   0  0  0  0  0  0  0  0  0  0  0  0
    2.3938   -2.0336    0.2236 C   0  0  0  0  0  0  0  0  0  0  0  0
    3.4055   -0.9490    0.2113 C   0  0  0  0  0  0  0  0  0  0  0  0
    3.8245   -0.2570    1.3255 C   0  0  0  0  0  0  0  0  0  0  0  0
    4.7944    0.7520    1.2741 C   0  0  0  0  0  0  0  0  0  0  0  0
    5.3862    1.1058    0.0829 C   0  0  0  0  0  0  0  0  0  0  0  0
    6.3967    2.1549    0.0150 C   0  0  0  0  0  0  0  0  0  0  0  0
    6.8037    2.8556    1.1754 N   0  0  0  0  0  0  0  0  0  0  0  0
    6.9245    2.4544   -1.0817 O   0  0  0  0  0  0  0  0  0  0  0  0
    4.9752    0.4199   -1.0372 C   0  0  0  0  0  0  0  0  0  0  0  0
    4.0206   -0.5745   -0.9906 C   0  0  0  0  0  0  0  0  0  0  0  0
    1.5426   -2.4083   -2.3509 H   0  0  0  0  0  0  0  0  0  0  0  0
    0.0951   -1.6123   -2.9493 H   0  0  0  0  0  0  0  0  0  0  0  0
    1.4936   -0.5558   -2.5074 H   0  0  0  0  0  0  0  0  0  0  0  0
   -1.4891   -0.6930   -1.7040 H   0  0  0  0  0  0  0  0  0  0  0  0
   -3.6566   -0.8942   -1.3403 H   0  0  0  0  0  0  0  0  0  0  0  0
   -3.1827    0.8472   -1.2237 H   0  0  0  0  0  0  0  0  0  0  0  0
   -4.7081    2.4759   -0.6999 H   0  0  0  0  0  0  0  0  0  0  0  0
   -7.0359    3.1818   -0.1179 H   0  0  0  0  0  0  0  0  0  0  0  0
   -7.9825   -0.8758    0.6995 H   0  0  0  0  0  0  0  0  0  0  0  0
    2.5277   -2.7246   -0.6414 H   0  0  0  0  0  0  0  0  0  0  0  0
    2.5306   -2.7013    1.1161 H   0  0  0  0  0  0  0  0  0  0  0  0
    3.3927   -0.5053    2.2832 H   0  0  0  0  0  0  0  0  0  0  0  0
    5.0946    1.2679    2.1602 H   0  0  0  0  0  0  0  0  0  0  0  0
    7.3347    2.4403    1.9693 H   0  0  0  0  0  0  0  0  0  0  0  0
    6.5581    3.8651    1.2509 H   0  0  0  0  0  0  0  0  0  0  0  0
    5.4408    0.6962   -1.9812 H   0  0  0  0  0  0  0  0  0  0  0  0
    3.7236   -1.1120   -1.8891 H   0  0  0  0  0  0  0  0  0  0  0  0
  1  2  1  0
  2  3  2  0
  3  4  1  0
  4  5  1  0
  5  6  1  0
  6  7  1  0
  7  8  2  0
  8  9  1  0
  9 10  2  0
 10 11  1  0
 10 12  1  0
 12 13  2  0
 13 14  1  0
  4 15  2  0
 15 16  1  0
 15 17  1  0
 17 18  2  0
 17 19  1  0
 19 20  1  0
 20 21  1  0
 21 22  2  0
 22 23  1  0
 23 24  2  0
 24 25  1  0
 25 26  1  0
 25 27  2  0
 24 28  1  0
 28 29  2  0
 19  2  1  0
 29 21  1  0
 13  7  1  0
  1 30  1  0
  1 31  1  0
  1 32  1  0
  3 33  1  0
  6 34  1  0
  6 35  1  0
  8 36  1  0
  9 37  1  0
 12 38  1  0
 20 39  1  0
 20 40  1  0
 22 41  1  0
 23 42  1  0
 26 43  1  0
 26 44  1  0
 28 45  1  0
 29 46  1  0
M  END
$$$$
