
     RDKit          3D

 42 43  0  0  0  0  0  0  0  0999 V2000
   -1.1995   -0.9477    1.8672 C   0  0  0  0  0  0  0  0  0  0  0  0
   -1.2407   -0.1110    0.6085 C   0  0  0  0  0  0  0  0  0  0  0  0
   -2.0255   -0.6703   -0.4389 N   0  0  0  0  0  0  0  0  0  0  0  0
   -1.6579   -1.9757   -0.8849 C   0  0  0  0  0  0  0  0  0  0  0  0
   -3.4261   -0.5229   -0.1293 C   0  0  0  0  0  0  0  0  0  0  0  0
    0.1146    0.4054    0.1972 C   0  0  0  0  0  0  0  0  0  0  0  0
    1.1204   -0.6067   -0.0823 C   0  0  0  0  0  0  0  0  0  0  0  0
    1.3428   -1.1113   -1.3490 C   0  0  0  0  0  0  0  0  0  0  0  0
    2.2992   -2.0719   -1.6015 C   0  0  0  0  0  0  0  0  0  0  0  0
    3.0744   -2.5646   -0.5768 C   0  0  0  0  0  0  0  0  0  0  0  0
    4.3045   -3.7847   -0.8348 Cl  0  0  0  0  0  0  0  0  0  0  0  0
    2.8738   -2.0801    0.6920 C   0  0  0  0  0  0  0  0  0  0  0  0
    3.8353   -2.6701    2.0532 Cl  0  0  0  0  0  0  0  0  0  0  0  0
    1.9064   -1.1142    0.9222 C   0  0  0  0  0  0  0  0  0  0  0  0
    0.5844    1.4918    1.1638 C   0  0  0  0  0  0  0  0  0  0  0  0
    1.4755    2.4724    0.4299 C   0  0  0  0  0  0  0  0  0  0  0  0
    0.5322    3.4363   -0.2968 C   0  0  0  0  0  0  0  0  0  0  0  0
   -0.6185    2.5960   -0.7992 C   0  0  0  0  0  0  0  0  0  0  0  0
   -0.1620    1.1860   -1.1071 C   0  0  0  0  0  0  0  0  0  0  0  0
   -0.4184   -1.7331    1.8391 H   0  0  0  0  0  0  0  0  0  0  0  0
   -2.1564   -1.4835    2.0343 H   0  0  0  0  0  0  0  0  0  0  0  0
   -1.0143   -0.3356    2.7738 H   0  0  0  0  0  0  0  0  0  0  0  0
   -1.8008    0.8276    0.9319 H   0  0  0  0  0  0  0  0  0  0  0  0
   -0.9296   -2.5013   -0.2386 H   0  0  0  0  0  0  0  0  0  0  0  0
   -2.5786   -2.6346   -0.8654 H   0  0  0  0  0  0  0  0  0  0  0  0
   -1.3284   -2.0286   -1.9432 H   0  0  0  0  0  0  0  0  0  0  0  0
   -3.5356   -0.4157    0.9731 H   0  0  0  0  0  0  0  0  0  0  0  0
   -3.9926   -1.4095   -0.4773 H   0  0  0  0  0  0  0  0  0  0  0  0
   -3.7706    0.4196   -0.6182 H   0  0  0  0  0  0  0  0  0  0  0  0
    0.7252   -0.7158   -2.1528 H   0  0  0  0  0  0  0  0  0  0  0  0
    2.4733   -2.4666   -2.5914 H   0  0  0  0  0  0  0  0  0  0  0  0
    1.7635   -0.7474    1.9236 H   0  0  0  0  0  0  0  0  0  0  0  0
    1.0007    1.1175    2.0909 H   0  0  0  0  0  0  0  0  0  0  0  0
   -0.3632    2.0348    1.4565 H   0  0  0  0  0  0  0  0  0  0  0  0
    2.0648    3.0109    1.1783 H   0  0  0  0  0  0  0  0  0  0  0  0
    2.1723    1.9802   -0.2661 H   0  0  0  0  0  0  0  0  0  0  0  0
    1.0325    4.0040   -1.0788 H   0  0  0  0  0  0  0  0  0  0  0  0
    0.1562    4.1272    0.4892 H   0  0  0  0  0  0  0  0  0  0  0  0
   -0.9599    3.0169   -1.7808 H   0  0  0  0  0  0  0  0  0  0  0  0
   -1.4984    2.6165   -0.1299 H   0  0  0  0  0  0  0  0  0  0  0  0
    0.7769    1.2690   -1.6821 H   0  0  0  0  0  0  0  0  0  0  0  0
   -0.9516    0.6907   -1.6997 H   0  0  0  0  0  0  0  0  0  0  0  0
  1  2  1  0
  2  3  1  0
  3  4  1  0
  3  5  1  0
  2  6  1  0
  6  7  1  0
  7  8  2  0
  8  9  1  0
  9 10  2  0
 10 11  1  0
 10 12  1  0
 12 13  1  0
 12 14  2  0
  6 15  1  0
 15 16  1  0
 16 17  1  0
 17 18  1  0
 18 19  1  0
 19  6  1  0
 14  7  1  0
  1 20  1  0
  1 21  1  0
  1 22  1  0
  2 23  1  0
  4 24  1  0
  4 25  1  0
  4 26  1  0
  5 27  1  0
  5 28  1  0
  5 29  1  0
  8 30  1  0
  9 31  1  0
 14 32  1  0
 15 33  1  0
 15 34  1  0
 16 35  1  0
 16 36  1  0
 17 37  1  0
 17 38  1  0
 18 39  1  0
 18 40  1  0
 19 41  1  0
 19 42  1  0
M  END
$$$$
