
     RDKit          3D

 52 55  0  0  0  0  0  0  0  0999 V2000
   -2.1907   -2.5797    0.2430 C   0  0  0  0  0  0  0  0  0  0  0  0
   -1.7052   -1.1325    0.0505 C   0  0  1  0  0  0  0  0  0  0  0  0
   -0.3777   -1.2695   -0.6144 C   0  0  0  0  0  0  0  0  0  0  0  0
    0.7402   -0.8774    0.0804 C   0  0  0  0  0  0  0  0  0  0  0  0
    2.0452   -0.9537   -0.4309 C   0  0  0  0  0  0  0  0  0  0  0  0
    3.1137   -0.5171    0.3863 N   0  0  0  0  0  0  0  0  0  0  0  0
    4.4633   -0.5326    0.0152 C   0  0  0  0  0  0  0  0  0  0  0  0
    4.8277   -0.9483   -1.1032 O   0  0  0  0  0  0  0  0  0  0  0  0
    5.4740   -0.0395    0.9864 C   0  0  0  0  0  0  0  0  0  0  0  0
    6.8049   -0.0411    0.6546 C   0  0  0  0  0  0  0  0  0  0  0  0
    7.7794    0.4117    1.5350 C   0  0  0  0  0  0  0  0  0  0  0  0
    7.3765    0.8711    2.7708 C   0  0  0  0  0  0  0  0  0  0  0  0
    8.3063    1.3237    3.6617 F   0  0  0  0  0  0  0  0  0  0  0  0
    6.0361    0.8664    3.0894 C   0  0  0  0  0  0  0  0  0  0  0  0
    5.1127    0.4120    2.1924 N   0  0  0  0  0  0  0  0  0  0  0  0
    2.1346   -1.4554   -1.6953 C   0  0  0  0  0  0  0  0  0  0  0  0
    1.0075   -1.8627   -2.4254 C   0  0  0  0  0  0  0  0  0  0  0  0
   -0.2540   -1.7733   -1.8923 C   0  0  0  0  0  0  0  0  0  0  0  0
   -1.3708   -2.1509   -2.5494 F   0  0  0  0  0  0  0  0  0  0  0  0
   -2.6030   -0.4121   -0.8856 C   0  0  0  0  0  0  0  0  0  0  0  0
   -3.6099    0.5140   -0.3550 C   0  0  0  0  0  0  0  0  0  0  0  0
   -4.9633    0.4197   -1.0377 C   0  0  0  0  0  0  0  0  0  0  0  0
   -5.0397    1.5530   -2.0695 C   0  0  0  0  0  0  0  0  0  0  0  0
   -5.1698    2.7735   -1.4196 O   0  0  0  0  0  0  0  0  0  0  0  0
   -4.3138    2.9066   -0.3418 C   0  0  0  0  0  0  0  0  0  0  0  0
   -3.1472    1.9623   -0.5767 C   0  0  0  0  0  0  0  0  0  0  0  0
   -3.9045    0.3671    1.4341 S   0  0  0  0  0  0  0  0  0  0  0  0
   -2.2483    0.0591    2.0958 C   0  0  0  0  0  0  0  0  0  0  0  0
   -1.8549    0.5242    3.3698 N   0  0  0  0  0  0  0  0  0  0  0  0
   -1.4939   -0.5995    1.3218 N   0  0  0  0  0  0  0  0  0  0  0  0
   -2.7046   -2.6609    1.2342 H   0  0  0  0  0  0  0  0  0  0  0  0
   -2.9273   -2.8276   -0.5288 H   0  0  0  0  0  0  0  0  0  0  0  0
   -1.3352   -3.2820    0.2947 H   0  0  0  0  0  0  0  0  0  0  0  0
    0.6437   -0.4762    1.0978 H   0  0  0  0  0  0  0  0  0  0  0  0
    2.8952   -0.1388    1.3759 H   0  0  0  0  0  0  0  0  0  0  0  0
    7.1181   -0.3962   -0.3010 H   0  0  0  0  0  0  0  0  0  0  0  0
    8.8268    0.4145    1.2840 H   0  0  0  0  0  0  0  0  0  0  0  0
    5.7475    1.2320    4.0651 H   0  0  0  0  0  0  0  0  0  0  0  0
    3.0756   -1.5539   -2.1719 H   0  0  0  0  0  0  0  0  0  0  0  0
    1.1225   -2.2529   -3.4201 H   0  0  0  0  0  0  0  0  0  0  0  0
   -2.0120    0.1332   -1.6815 H   0  0  0  0  0  0  0  0  0  0  0  0
   -3.1538   -1.2031   -1.4784 H   0  0  0  0  0  0  0  0  0  0  0  0
   -5.1284   -0.5527   -1.5147 H   0  0  0  0  0  0  0  0  0  0  0  0
   -5.7778    0.6318   -0.3147 H   0  0  0  0  0  0  0  0  0  0  0  0
   -4.1935    1.5169   -2.7761 H   0  0  0  0  0  0  0  0  0  0  0  0
   -5.9620    1.4301   -2.6905 H   0  0  0  0  0  0  0  0  0  0  0  0
   -4.7848    2.6175    0.6218 H   0  0  0  0  0  0  0  0  0  0  0  0
   -3.9088    3.9374   -0.3186 H   0  0  0  0  0  0  0  0  0  0  0  0
   -2.6702    2.0971   -1.5496 H   0  0  0  0  0  0  0  0  0  0  0  0
   -2.3681    2.1303    0.2115 H   0  0  0  0  0  0  0  0  0  0  0  0
   -2.6138    0.7447    4.0590 H   0  0  0  0  0  0  0  0  0  0  0  0
   -0.8644    0.6398    3.6055 H   0  0  0  0  0  0  0  0  0  0  0  0
  2  1  1  1
  2  3  1  0
  3  4  2  0
  4  5  1  0
  5  6  1  0
  6  7  1  0
  7  8  2  0
  7  9  1  0
  9 10  2  0
 10 11  1  0
 11 12  2  0
 12 13  1  0
 12 14  1  0
 14 15  2  0
  5 16  2  0
 16 17  1  0
 17 18  2  0
 18 19  1  0
  2 20  1  0
 20 21  1  0
 21 22  1  0
 22 23  1  0
 23 24  1  0
 24 25  1  0
 25 26  1  0
 21 27  1  0
 27 28  1  0
 28 29  1  0
 28 30  2  0
 30  2  1  0
 18  3  1  0
 26 21  1  0
 15  9  1  0
  1 31  1  0
  1 32  1  0
  1 33  1  0
  4 34  1  0
  6 35  1  0
 10 36  1  0
 11 37  1  0
 14 38  1  0
 16 39  1  0
 17 40  1  0
 20 41  1  0
 20 42  1  0
 22 43  1  0
 22 44  1  0
 23 45  1  0
 23 46  1  0
 25 47  1  0
 25 48  1  0
 26 49  1  0
 26 50  1  0
 29 51  1  0
 29 52  1  0
M  END
$$$$
