
     RDKit          3D

 24 23  0  0  0  0  0  0  0  0999 V2000
    1.8710   -1.1262    0.8254 N   0  0  0  0  0  0  0  0  0  0  0  0
    1.9555    0.1846    0.2588 C   0  0  0  0  0  0  0  0  0  0  0  0
    1.1035    0.3496   -0.9777 C   0  0  0  0  0  0  0  0  0  0  0  0
   -0.3614    0.1188   -0.7583 C   0  0  0  0  0  0  0  0  0  0  0  0
   -0.9788    0.3163   -2.0107 O   0  0  0  0  0  0  0  0  0  0  0  0
   -0.7924   -1.5064   -0.1653 P   0  0  0  0  0  0  0  0  0  0  0  0
   -0.7442   -1.5295    1.5139 O   0  0  0  0  0  0  0  0  0  0  0  0
   -2.4343   -1.7562   -0.5842 O   0  0  0  0  0  0  0  0  0  0  0  0
   -0.0278   -2.6308   -0.8089 O   0  0  0  0  0  0  0  0  0  0  0  0
   -1.0963    1.3434    0.3455 P   0  0  0  0  0  0  0  0  0  0  0  0
   -0.3836    1.2820    1.8870 O   0  0  0  0  0  0  0  0  0  0  0  0
   -0.9750    2.8684   -0.3620 O   0  0  0  0  0  0  0  0  0  0  0  0
   -2.5469    0.9468    0.5531 O   0  0  0  0  0  0  0  0  0  0  0  0
    1.9562   -1.1451    1.8646 H   0  0  0  0  0  0  0  0  0  0  0  0
    2.5899   -1.7880    0.4496 H   0  0  0  0  0  0  0  0  0  0  0  0
    1.7531    0.9853    0.9867 H   0  0  0  0  0  0  0  0  0  0  0  0
    2.9997    0.3254   -0.0981 H   0  0  0  0  0  0  0  0  0  0  0  0
    1.2086    1.3869   -1.3572 H   0  0  0  0  0  0  0  0  0  0  0  0
    1.4839   -0.3155   -1.7789 H   0  0  0  0  0  0  0  0  0  0  0  0
   -0.4758   -0.1675   -2.6978 H   0  0  0  0  0  0  0  0  0  0  0  0
   -1.4244   -2.1796    1.8685 H   0  0  0  0  0  0  0  0  0  0  0  0
   -2.5702   -1.5916   -1.5511 H   0  0  0  0  0  0  0  0  0  0  0  0
   -0.7711    2.0456    2.3953 H   0  0  0  0  0  0  0  0  0  0  0  0
   -1.3395    3.5833    0.2018 H   0  0  0  0  0  0  0  0  0  0  0  0
  1  2  1  0
  2  3  1  0
  3  4  1  0
  4  5  1  0
  4  6  1  0
  6  7  1  0
  6  8  1  0
  6  9  2  0
  4 10  1  0
 10 11  1  0
 10 12  1  0
 10 13  2  0
  1 14  1  0
  1 15  1  0
  2 16  1  0
  2 17  1  0
  3 18  1  0
  3 19  1  0
  5 20  1  0
  7 21  1  0
  8 22  1  0
 11 23  1  0
 12 24  1  0
M  END
$$$$
