
     RDKit          3D

 65 66  0  0  0  0  0  0  0  0999 V2000
   -4.2857    4.6181    0.3486 C   0  0  0  0  0  0  0  0  0  0  0  0
   -3.7638    3.3273    0.8703 C   0  0  0  0  0  0  0  0  0  0  0  0
   -3.4318    2.3308   -0.2206 C   0  0  2  0  0  0  0  0  0  0  0  0
   -4.6993    2.0607   -0.9902 C   0  0  0  0  0  0  0  0  0  0  0  0
   -3.0283    1.0497    0.4412 C   0  0  0  0  0  0  0  0  0  0  0  0
   -3.0051    0.9332    1.6942 O   0  0  0  0  0  0  0  0  0  0  0  0
   -2.6598   -0.0740   -0.2679 O   0  0  0  0  0  0  0  0  0  0  0  0
   -2.2800   -1.2801    0.3579 C   0  0  1  0  0  0  0  0  0  0  0  0
   -3.3044   -2.3732    0.1565 C   0  0  0  0  0  0  0  0  0  0  0  0
   -2.9711   -3.4141    1.2554 C   0  0  2  0  0  0  0  0  0  0  0  0
   -2.9721   -2.8528    2.5020 O   0  0  0  0  0  0  0  0  0  0  0  0
   -1.6210   -3.9517    0.8468 C   0  0  0  0  0  0  0  0  0  0  0  0
   -0.7062   -3.1348    0.3042 C   0  0  0  0  0  0  0  0  0  0  0  0
    0.6095   -3.7019   -0.0903 C   0  0  0  0  0  0  0  0  0  0  0  0
    1.0832   -3.3390   -1.2705 C   0  0  0  0  0  0  0  0  0  0  0  0
    0.2326   -2.4111   -2.0539 C   0  0  2  0  0  0  0  0  0  0  0  0
    0.9331   -1.9080   -3.2907 C   0  0  0  0  0  0  0  0  0  0  0  0
   -0.3526   -1.2835   -1.2522 C   0  0  2  0  0  0  0  0  0  0  0  0
    0.6830   -0.1987   -1.1089 C   0  0  0  0  0  0  0  0  0  0  0  0
    1.9348   -0.6027   -0.4207 C   0  0  0  0  0  0  0  0  0  0  0  0
    2.8350    0.6406   -0.3863 C   0  0  1  0  0  0  0  0  0  0  0  0
    2.1389    1.6189    0.3199 O   0  0  0  0  0  0  0  0  0  0  0  0
    4.0958    0.3385    0.3748 C   0  0  0  0  0  0  0  0  0  0  0  0
    4.9393    1.5941    0.3755 C   0  0  1  0  0  0  0  0  0  0  0  0
    4.1690    2.5885    1.0090 O   0  0  0  0  0  0  0  0  0  0  0  0
    6.2111    1.3532    1.1309 C   0  0  0  0  0  0  0  0  0  0  0  0
    7.0255    2.5825    1.1256 C   0  0  0  0  0  0  0  0  0  0  0  0
    6.6073    3.6061    0.5434 O   0  0  0  0  0  0  0  0  0  0  0  0
    8.2757    2.6220    1.7705 O   0  0  0  0  0  1  0  0  0  0  0  0
   -0.8880   -1.6892    0.0925 C   0  0  1  0  0  0  0  0  0  0  0  0
   -3.9062    5.5025    0.9342 H   0  0  0  0  0  0  0  0  0  0  0  0
   -5.3887    4.6308    0.5022 H   0  0  0  0  0  0  0  0  0  0  0  0
   -4.0911    4.7946   -0.7247 H   0  0  0  0  0  0  0  0  0  0  0  0
   -4.4620    2.8230    1.5888 H   0  0  0  0  0  0  0  0  0  0  0  0
   -2.8184    3.5326    1.4478 H   0  0  0  0  0  0  0  0  0  0  0  0
   -2.6304    2.7597   -0.8348 H   0  0  0  0  0  0  0  0  0  0  0  0
   -4.7333    1.0138   -1.3858 H   0  0  0  0  0  0  0  0  0  0  0  0
   -4.7314    2.7218   -1.8930 H   0  0  0  0  0  0  0  0  0  0  0  0
   -5.6083    2.1783   -0.3659 H   0  0  0  0  0  0  0  0  0  0  0  0
   -2.3608   -1.0672    1.4703 H   0  0  0  0  0  0  0  0  0  0  0  0
   -4.3022   -1.9958    0.4305 H   0  0  0  0  0  0  0  0  0  0  0  0
   -3.2013   -2.8079   -0.8320 H   0  0  0  0  0  0  0  0  0  0  0  0
   -3.6950   -4.2365    1.0967 H   0  0  0  0  0  0  0  0  0  0  0  0
   -3.9174   -2.9066    2.8482 H   0  0  0  0  0  0  0  0  0  0  0  0
   -1.3677   -4.9707    0.9865 H   0  0  0  0  0  0  0  0  0  0  0  0
    1.0872   -4.3891    0.5987 H   0  0  0  0  0  0  0  0  0  0  0  0
    2.0376   -3.7225   -1.5997 H   0  0  0  0  0  0  0  0  0  0  0  0
   -0.6770   -2.9636   -2.4589 H   0  0  0  0  0  0  0  0  0  0  0  0
    1.9998   -1.7248   -3.1845 H   0  0  0  0  0  0  0  0  0  0  0  0
    0.3622   -1.0488   -3.6893 H   0  0  0  0  0  0  0  0  0  0  0  0
    0.8488   -2.7158   -4.0767 H   0  0  0  0  0  0  0  0  0  0  0  0
   -1.1744   -0.8452   -1.8766 H   0  0  0  0  0  0  0  0  0  0  0  0
    0.2263    0.6325   -0.5699 H   0  0  0  0  0  0  0  0  0  0  0  0
    0.9304    0.1541   -2.1232 H   0  0  0  0  0  0  0  0  0  0  0  0
    1.7985   -0.8838    0.6429 H   0  0  0  0  0  0  0  0  0  0  0  0
    2.5294   -1.3880   -0.8846 H   0  0  0  0  0  0  0  0  0  0  0  0
    3.0510    0.9536   -1.4298 H   0  0  0  0  0  0  0  0  0  0  0  0
    2.0511    2.4251   -0.2448 H   0  0  0  0  0  0  0  0  0  0  0  0
    3.7925    0.0922    1.4189 H   0  0  0  0  0  0  0  0  0  0  0  0
    4.6040   -0.5307   -0.0536 H   0  0  0  0  0  0  0  0  0  0  0  0
    5.1094    1.8791   -0.6775 H   0  0  0  0  0  0  0  0  0  0  0  0
    4.3866    2.6215    1.9736 H   0  0  0  0  0  0  0  0  0  0  0  0
    5.9414    1.0469    2.1631 H   0  0  0  0  0  0  0  0  0  0  0  0
    6.7711    0.5515    0.6113 H   0  0  0  0  0  0  0  0  0  0  0  0
   -0.2665   -1.1663    0.9121 H   0  0  0  0  0  0  0  0  0  0  0  0
  1  2  1  0
  2  3  1  0
  3  4  1  0
  3  5  1  0
  5  6  2  0
  5  7  1  0
  7  8  1  0
  8  9  1  0
  9 10  1  0
 10 11  1  0
 10 12  1  0
 12 13  2  0
 13 14  1  0
 14 15  2  0
 15 16  1  0
 16 17  1  0
 16 18  1  0
 18 19  1  0
 19 20  1  0
 20 21  1  0
 21 22  1  0
 21 23  1  0
 23 24  1  0
 24 25  1  0
 24 26  1  0
 26 27  1  0
 27 28  2  0
 27 29  1  0
 18 30  1  0
 30  8  1  0
 30 13  1  0
  1 31  1  0
  1 32  1  0
  1 33  1  0
  2 34  1  0
  2 35  1  0
  3 36  1  6
  4 37  1  0
  4 38  1  0
  4 39  1  0
  8 40  1  1
  9 41  1  0
  9 42  1  0
 10 43  1  1
 11 44  1  0
 12 45  1  0
 14 46  1  0
 15 47  1  0
 16 48  1  6
 17 49  1  0
 17 50  1  0
 17 51  1  0
 18 52  1  6
 19 53  1  0
 19 54  1  0
 20 55  1  0
 20 56  1  0
 21 57  1  6
 22 58  1  0
 23 59  1  0
 23 60  1  0
 24 61  1  6
 25 62  1  0
 26 63  1  0
 26 64  1  0
 30 65  1  1
M  CHG  1  29  -1
M  END
$$$$
