
     RDKit          3D

 56 59  0  0  0  0  0  0  0  0999 V2000
    8.8301    0.9857   -1.0281 C   0  0  0  0  0  0  0  0  0  0  0  0
    8.1321   -0.1267   -0.4775 O   0  0  0  0  0  0  0  0  0  0  0  0
    6.8384   -0.4079   -0.9067 C   0  0  0  0  0  0  0  0  0  0  0  0
    6.2998    0.3288   -1.7776 O   0  0  0  0  0  0  0  0  0  0  0  0
    6.2646   -1.5997   -0.2322 C   0  0  0  0  0  0  0  0  0  0  0  0
    4.8621   -1.9058   -0.6868 C   0  0  0  0  0  0  0  0  0  0  0  0
    3.9369   -2.0449    0.5292 C   0  0  0  0  0  0  0  0  0  0  0  0
    3.9753   -0.7633    1.2218 N   0  0  0  0  0  0  0  0  0  0  0  0
    5.2995   -0.3230    1.6862 C   0  0  0  0  0  0  0  0  0  0  0  0
    6.3031   -1.3538    1.2734 C   0  0  0  0  0  0  0  0  0  0  0  0
    3.0240    0.2393    1.5984 C   0  0  0  0  0  0  0  0  0  0  0  0
    3.1716    1.3459    2.2126 O   0  0  0  0  0  0  0  0  0  0  0  0
    1.5940    0.3497    1.4218 C   0  0  0  0  0  0  0  0  0  0  0  0
    1.0627    0.7497    0.1887 C   0  0  0  0  0  0  0  0  0  0  0  0
   -0.2999    0.8803   -0.0603 C   0  0  0  0  0  0  0  0  0  0  0  0
   -1.1322    0.5883    0.9996 C   0  0  0  0  0  0  0  0  0  0  0  0
   -2.5521    0.7068    0.8003 N   0  0  0  0  0  0  0  0  0  0  0  0
   -3.1390    1.1218   -0.4723 C   0  0  0  0  0  0  0  0  0  0  0  0
   -4.6394    1.1627   -0.3585 C   0  0  0  0  0  0  0  0  0  0  0  0
   -5.4589    0.1291   -0.6244 N   0  0  0  0  0  0  0  0  0  0  0  0
   -6.7995    0.2650   -0.4782 C   0  0  0  0  0  0  0  0  0  0  0  0
   -7.2980    1.4779   -0.0548 C   0  0  0  0  0  0  0  0  0  0  0  0
   -6.4937    2.5218    0.2152 N   0  0  0  0  0  0  0  0  0  0  0  0
   -5.1536    2.3921    0.0713 C   0  0  0  0  0  0  0  0  0  0  0  0
   -8.6544    1.5329    0.0662 N   0  0  0  0  0  0  0  0  0  0  0  0
   -9.4246    0.4656   -0.2137 C   0  0  0  0  0  0  0  0  0  0  0  0
  -10.8379    0.5804   -0.0674 N   0  0  0  0  0  0  0  0  0  0  0  0
   -8.9057   -0.7136   -0.6276 N   0  0  0  0  0  0  0  0  0  0  0  0
   -7.5543   -0.8491   -0.7745 C   0  0  0  0  0  0  0  0  0  0  0  0
   -6.9717   -2.0715   -1.2076 N   0  0  0  0  0  0  0  0  0  0  0  0
   -0.7097    0.1896    2.2416 C   0  0  0  0  0  0  0  0  0  0  0  0
    0.6666    0.0837    2.4077 C   0  0  0  0  0  0  0  0  0  0  0  0
    8.8369    0.8991   -2.1377 H   0  0  0  0  0  0  0  0  0  0  0  0
    9.8387    1.0024   -0.5915 H   0  0  0  0  0  0  0  0  0  0  0  0
    8.3381    1.9354   -0.6767 H   0  0  0  0  0  0  0  0  0  0  0  0
    6.9387   -2.4556   -0.4312 H   0  0  0  0  0  0  0  0  0  0  0  0
    4.8073   -2.8073   -1.3234 H   0  0  0  0  0  0  0  0  0  0  0  0
    4.5013   -1.0296   -1.2589 H   0  0  0  0  0  0  0  0  0  0  0  0
    4.2172   -2.8702    1.1809 H   0  0  0  0  0  0  0  0  0  0  0  0
    2.9128   -2.1876    0.0914 H   0  0  0  0  0  0  0  0  0  0  0  0
    5.5509    0.6605    1.2402 H   0  0  0  0  0  0  0  0  0  0  0  0
    5.3141   -0.2302    2.7804 H   0  0  0  0  0  0  0  0  0  0  0  0
    6.1088   -2.2883    1.8461 H   0  0  0  0  0  0  0  0  0  0  0  0
    7.3156   -0.9795    1.4951 H   0  0  0  0  0  0  0  0  0  0  0  0
    1.7851    0.9557   -0.5839 H   0  0  0  0  0  0  0  0  0  0  0  0
   -0.6309    1.1881   -1.0218 H   0  0  0  0  0  0  0  0  0  0  0  0
   -3.2220    0.4938    1.5768 H   0  0  0  0  0  0  0  0  0  0  0  0
   -2.7228    2.0936   -0.7542 H   0  0  0  0  0  0  0  0  0  0  0  0
   -2.8449    0.3979   -1.2799 H   0  0  0  0  0  0  0  0  0  0  0  0
   -4.5802    3.2776    0.3104 H   0  0  0  0  0  0  0  0  0  0  0  0
  -11.4976   -0.1001   -0.5477 H   0  0  0  0  0  0  0  0  0  0  0  0
  -11.2936    1.3336    0.5140 H   0  0  0  0  0  0  0  0  0  0  0  0
   -6.7698   -2.4373   -0.2292 H   0  0  0  0  0  0  0  0  0  0  0  0
   -6.7736   -2.5237   -2.1279 H   0  0  0  0  0  0  0  0  0  0  0  0
   -1.3798   -0.0347    3.0589 H   0  0  0  0  0  0  0  0  0  0  0  0
    1.0134   -0.2313    3.3860 H   0  0  0  0  0  0  0  0  0  0  0  0
  1  2  1  0
  2  3  1  0
  3  4  2  0
  3  5  1  0
  5  6  1  0
  6  7  1  0
  7  8  1  0
  8  9  1  0
  9 10  1  0
  8 11  1  0
 11 12  2  0
 11 13  1  0
 13 14  2  0
 14 15  1  0
 15 16  2  0
 16 17  1  0
 17 18  1  0
 18 19  1  0
 19 20  2  0
 20 21  1  0
 21 22  2  0
 22 23  1  0
 23 24  2  0
 22 25  1  0
 25 26  2  0
 26 27  1  0
 26 28  1  0
 28 29  2  0
 29 30  1  0
 16 31  1  0
 31 32  2  0
 10  5  1  0
 32 13  1  0
 24 19  1  0
 29 21  1  0
  1 33  1  0
  1 34  1  0
  1 35  1  0
  5 36  1  0
  6 37  1  0
  6 38  1  0
  7 39  1  0
  7 40  1  0
  9 41  1  0
  9 42  1  0
 10 43  1  0
 10 44  1  0
 14 45  1  0
 15 46  1  0
 17 47  1  0
 18 48  1  0
 18 49  1  0
 24 50  1  0
 27 51  1  0
 27 52  1  0
 30 53  1  0
 30 54  1  0
 31 55  1  0
 32 56  1  0
M  END
$$$$
