
     RDKit          3D

 61 62  0  0  0  0  0  0  0  0999 V2000
   -7.0576    0.0260   -1.3052 C   0  0  0  0  0  0  0  0  0  0  0  0
   -5.8981    0.2477   -0.4268 C   0  0  0  0  0  0  0  0  0  0  0  0
   -5.8246    1.2542    0.2947 O   0  0  0  0  0  0  0  0  0  0  0  0
   -4.8070   -0.6768   -0.3606 N   0  0  0  0  0  0  0  0  0  0  0  0
   -3.6710   -0.4429    0.5098 C   0  0  1  0  0  0  0  0  0  0  0  0
   -4.1192   -0.2700    1.9506 C   0  0  0  0  0  0  0  0  0  0  0  0
   -2.7815   -1.6014    0.4261 C   0  0  0  0  0  0  0  0  0  0  0  0
   -3.0853   -2.4666   -0.4786 O   0  0  0  0  0  0  0  0  0  0  0  0
   -1.6369   -1.9195    1.1945 N   0  0  0  0  0  0  0  0  0  0  0  0
   -0.6974   -3.0822    1.1603 C   0  0  0  0  0  0  0  0  0  0  0  0
   -0.5917   -2.9202    2.6574 C   0  0  0  0  0  0  0  0  0  0  0  0
   -0.8104   -1.4716    2.2817 C   0  0  1  0  0  0  0  0  0  0  0  0
    0.4532   -0.8043    1.9671 C   0  0  0  0  0  0  0  0  0  0  0  0
    1.2039   -0.5434    2.9732 O   0  0  0  0  0  0  0  0  0  0  0  0
    0.9369   -0.4213    0.7144 N   0  0  0  0  0  0  0  0  0  0  0  0
    2.2404    0.2362    0.5755 C   0  0  2  0  0  0  0  0  0  0  0  0
    2.0904    1.5524   -0.0713 C   0  0  0  0  0  0  0  0  0  0  0  0
    2.9633    2.3657   -0.2694 O   0  0  0  0  0  0  0  0  0  0  0  0
    3.1675   -0.6826   -0.2230 C   0  0  0  0  0  0  0  0  0  0  0  0
    4.5028   -0.0422   -0.3775 C   0  0  0  0  0  0  0  0  0  0  0  0
    5.4704   -0.9572   -1.1417 C   0  0  0  0  0  0  0  0  0  0  0  0
    6.7228   -0.2415   -1.2375 N   0  0  0  0  0  0  0  0  0  0  0  0
    6.8841    0.9279   -2.0271 C   0  0  0  0  0  0  0  0  0  0  0  0
    6.1534    1.0098   -3.1064 N   0  0  0  0  0  0  0  0  0  0  0  0
    7.7784    1.9640   -1.6899 N   0  0  0  0  0  0  0  0  0  0  0  0
   -2.9889    0.8049    0.0917 C   0  0  0  0  0  0  0  0  0  0  0  0
   -3.3521    1.3492   -1.1446 C   0  0  0  0  0  0  0  0  0  0  0  0
   -2.8021    2.5360   -1.5696 C   0  0  0  0  0  0  0  0  0  0  0  0
   -1.8896    3.1978   -0.7833 C   0  0  0  0  0  0  0  0  0  0  0  0
   -1.5366    2.6497    0.4388 C   0  0  0  0  0  0  0  0  0  0  0  0
   -2.0748    1.4557    0.8934 C   0  0  0  0  0  0  0  0  0  0  0  0
   -6.9009   -0.8287   -2.0061 H   0  0  0  0  0  0  0  0  0  0  0  0
   -7.3278    0.9626   -1.8182 H   0  0  0  0  0  0  0  0  0  0  0  0
   -7.9319   -0.2819   -0.6732 H   0  0  0  0  0  0  0  0  0  0  0  0
   -4.8062   -1.5432   -0.9391 H   0  0  0  0  0  0  0  0  0  0  0  0
   -3.7941    0.7263    2.2971 H   0  0  0  0  0  0  0  0  0  0  0  0
   -3.7077   -1.0203    2.6233 H   0  0  0  0  0  0  0  0  0  0  0  0
   -5.2200   -0.3154    1.9790 H   0  0  0  0  0  0  0  0  0  0  0  0
    0.2259   -2.8032    0.6403 H   0  0  0  0  0  0  0  0  0  0  0  0
   -1.2012   -3.9997    0.7987 H   0  0  0  0  0  0  0  0  0  0  0  0
    0.4101   -3.1581    3.0759 H   0  0  0  0  0  0  0  0  0  0  0  0
   -1.4470   -3.4130    3.1792 H   0  0  0  0  0  0  0  0  0  0  0  0
   -1.3434   -0.9410    3.0996 H   0  0  0  0  0  0  0  0  0  0  0  0
    0.3483   -0.6012   -0.1322 H   0  0  0  0  0  0  0  0  0  0  0  0
    2.6328    0.3874    1.5964 H   0  0  0  0  0  0  0  0  0  0  0  0
    1.0929    1.8511   -0.4192 H   0  0  0  0  0  0  0  0  0  0  0  0
    3.2149   -1.6775    0.2604 H   0  0  0  0  0  0  0  0  0  0  0  0
    2.7255   -0.8665   -1.2389 H   0  0  0  0  0  0  0  0  0  0  0  0
    5.0080    0.2199    0.5664 H   0  0  0  0  0  0  0  0  0  0  0  0
    4.4400    0.8650   -1.0500 H   0  0  0  0  0  0  0  0  0  0  0  0
    5.0665   -1.2327   -2.1232 H   0  0  0  0  0  0  0  0  0  0  0  0
    5.6427   -1.8743   -0.5365 H   0  0  0  0  0  0  0  0  0  0  0  0
    7.5691   -0.5801   -0.7073 H   0  0  0  0  0  0  0  0  0  0  0  0
    5.4846    0.2932   -3.4083 H   0  0  0  0  0  0  0  0  0  0  0  0
    7.6190    2.9060   -2.1284 H   0  0  0  0  0  0  0  0  0  0  0  0
    8.5711    1.8409   -1.0432 H   0  0  0  0  0  0  0  0  0  0  0  0
   -4.0726    0.8214   -1.7960 H   0  0  0  0  0  0  0  0  0  0  0  0
   -3.1362    2.8932   -2.5441 H   0  0  0  0  0  0  0  0  0  0  0  0
   -1.4822    4.1237   -1.1557 H   0  0  0  0  0  0  0  0  0  0  0  0
   -0.8184    3.1648    1.0603 H   0  0  0  0  0  0  0  0  0  0  0  0
   -1.8047    1.0479    1.8576 H   0  0  0  0  0  0  0  0  0  0  0  0
  1  2  1  0
  2  3  2  0
  2  4  1  0
  5  4  1  6
  5  6  1  0
  5  7  1  0
  7  8  2  0
  7  9  1  0
  9 10  1  0
 10 11  1  0
 11 12  1  0
 12 13  1  0
 13 14  2  0
 13 15  1  0
 15 16  1  0
 16 17  1  0
 17 18  2  0
 16 19  1  0
 19 20  1  0
 20 21  1  0
 21 22  1  0
 22 23  1  0
 23 24  2  3
 23 25  1  0
  5 26  1  0
 26 27  2  0
 27 28  1  0
 28 29  2  0
 29 30  1  0
 30 31  2  0
 12  9  1  0
 31 26  1  0
  1 32  1  0
  1 33  1  0
  1 34  1  0
  4 35  1  0
  6 36  1  0
  6 37  1  0
  6 38  1  0
 10 39  1  0
 10 40  1  0
 11 41  1  0
 11 42  1  0
 12 43  1  1
 15 44  1  0
 16 45  1  1
 17 46  1  0
 19 47  1  0
 19 48  1  0
 20 49  1  0
 20 50  1  0
 21 51  1  0
 21 52  1  0
 22 53  1  0
 24 54  1  0
 25 55  1  0
 25 56  1  0
 27 57  1  0
 28 58  1  0
 29 59  1  0
 30 60  1  0
 31 61  1  0
M  END
$$$$
