
     RDKit          3D

 24 23  0  0  0  0  0  0  0  0999 V2000
   -2.6045   -0.8827   -0.9855 N   0  0  0  0  0  0  0  0  0  0  0  0
   -1.9804   -0.3108    0.2035 C   0  0  1  0  0  0  0  0  0  0  0  0
   -0.6417    0.2132   -0.1865 C   0  0  0  0  0  0  0  0  0  0  0  0
    0.1267   -1.0036   -0.7191 C   0  0  0  0  0  0  0  0  0  0  0  0
    1.4574   -0.6830   -1.1422 N   0  0  0  0  0  0  0  0  0  0  0  0
    2.4286   -0.3090   -0.1903 C   0  0  0  0  0  0  0  0  0  0  0  0
    2.4238   -0.8656    0.9858 N   0  0  0  0  0  0  0  0  0  0  0  0
    3.4370    0.6798   -0.4802 N   0  0  0  0  0  0  0  0  0  0  0  0
    4.2428    1.1392    0.5234 O   0  0  0  0  0  0  0  0  0  0  0  0
   -2.8822    0.6376    0.8487 C   0  0  0  0  0  0  0  0  0  0  0  0
   -2.9009    1.5038    1.9106 O   0  0  0  0  0  0  0  0  0  0  0  0
   -4.0553    0.8068    0.3683 O   0  0  0  0  0  0  0  0  0  0  0  0
   -2.4388   -1.8935   -1.0948 H   0  0  0  0  0  0  0  0  0  0  0  0
   -3.6135   -0.6151   -1.0291 H   0  0  0  0  0  0  0  0  0  0  0  0
   -1.7978   -1.1614    0.9114 H   0  0  0  0  0  0  0  0  0  0  0  0
   -0.0889    0.7142    0.6069 H   0  0  0  0  0  0  0  0  0  0  0  0
   -0.7069    0.9017   -1.0777 H   0  0  0  0  0  0  0  0  0  0  0  0
   -0.4506   -1.3793   -1.5786 H   0  0  0  0  0  0  0  0  0  0  0  0
    0.1066   -1.8179    0.0396 H   0  0  0  0  0  0  0  0  0  0  0  0
    1.7760   -0.7066   -2.1547 H   0  0  0  0  0  0  0  0  0  0  0  0
    3.1420   -0.5994    1.7144 H   0  0  0  0  0  0  0  0  0  0  0  0
    3.5247    1.0236   -1.4756 H   0  0  0  0  0  0  0  0  0  0  0  0
    4.4884    2.0822    0.3366 H   0  0  0  0  0  0  0  0  0  0  0  0
   -2.9925    2.5256    1.7907 H   0  0  0  0  0  0  0  0  0  0  0  0
  1  2  1  0
  2  3  1  0
  3  4  1  0
  4  5  1  0
  5  6  1  0
  6  7  2  3
  6  8  1  0
  8  9  1  0
  2 10  1  0
 10 11  1  0
 10 12  2  0
  1 13  1  0
  1 14  1  0
  2 15  1  1
  3 16  1  0
  3 17  1  0
  4 18  1  0
  4 19  1  0
  5 20  1  0
  7 21  1  0
  8 22  1  0
  9 23  1  0
 11 24  1  0
M  END
$$$$
