
     RDKit          3D

 48 51  0  0  0  0  0  0  0  0999 V2000
    7.2556   -1.5414    1.1148 C   0  0  0  0  0  0  0  0  0  0  0  0
    6.2369   -1.4038    0.0167 C   0  0  0  0  0  0  0  0  0  0  0  0
    6.8100   -2.0574   -1.2255 C   0  0  0  0  0  0  0  0  0  0  0  0
    5.0049   -1.9841    0.3339 O   0  0  0  0  0  0  0  0  0  0  0  0
    3.8290   -1.2466    0.3480 C   0  0  0  0  0  0  0  0  0  0  0  0
    3.6220    0.0929    0.0797 C   0  0  0  0  0  0  0  0  0  0  0  0
    2.2814    0.3936    0.2167 C   0  0  0  0  0  0  0  0  0  0  0  0
    1.6702    1.6693    0.0246 N   0  0  0  0  0  0  0  0  0  0  0  0
    2.2681    2.8572   -0.1623 C   0  0  0  0  0  0  0  0  0  0  0  0
    1.3387    3.8277   -0.3049 N   0  0  0  0  0  0  0  0  0  0  0  0
    0.1243    3.2652   -0.2096 C   0  0  0  0  0  0  0  0  0  0  0  0
   -1.1684    3.7375   -0.2727 C   0  0  0  0  0  0  0  0  0  0  0  0
   -2.1892    2.8127   -0.1230 C   0  0  0  0  0  0  0  0  0  0  0  0
   -1.9536    1.4732    0.0811 C   0  0  0  0  0  0  0  0  0  0  0  0
   -3.0224    0.5182    0.2323 N   0  0  0  0  0  0  0  0  0  0  0  0
   -4.4070    0.8716    0.1521 C   0  0  1  0  0  0  0  0  0  0  0  0
   -4.7783    1.4236   -1.2134 C   0  0  0  0  0  0  0  0  0  0  0  0
   -5.2289   -0.3433    0.3908 C   0  0  0  0  0  0  0  0  0  0  0  0
   -4.8408   -1.1475    1.4511 C   0  0  0  0  0  0  0  0  0  0  0  0
   -5.5504   -2.2958    1.7416 C   0  0  0  0  0  0  0  0  0  0  0  0
   -6.6391   -2.5706    0.9215 C   0  0  0  0  0  0  0  0  0  0  0  0
   -7.3333   -3.6965    1.2076 F   0  0  0  0  0  0  0  0  0  0  0  0
   -6.9934   -1.7402   -0.1285 C   0  0  0  0  0  0  0  0  0  0  0  0
   -6.2797   -0.6472   -0.3680 N   0  0  0  0  0  0  0  0  0  0  0  0
   -0.6887    1.0623    0.1350 N   0  0  0  0  0  0  0  0  0  0  0  0
    0.3479    1.9123   -0.0032 C   0  0  0  0  0  0  0  0  0  0  0  0
    1.6968   -0.7658    0.5653 N   0  0  0  0  0  0  0  0  0  0  0  0
    2.6070   -1.7317    0.6428 N   0  0  0  0  0  0  0  0  0  0  0  0
    7.2168   -2.5595    1.5887 H   0  0  0  0  0  0  0  0  0  0  0  0
    8.2595   -1.4677    0.6386 H   0  0  0  0  0  0  0  0  0  0  0  0
    7.2103   -0.7477    1.8724 H   0  0  0  0  0  0  0  0  0  0  0  0
    6.1207   -0.3268   -0.2061 H   0  0  0  0  0  0  0  0  0  0  0  0
    7.4938   -1.3280   -1.7193 H   0  0  0  0  0  0  0  0  0  0  0  0
    5.9687   -2.3466   -1.8663 H   0  0  0  0  0  0  0  0  0  0  0  0
    7.4194   -2.9061   -0.8926 H   0  0  0  0  0  0  0  0  0  0  0  0
    4.4060    0.8041   -0.1990 H   0  0  0  0  0  0  0  0  0  0  0  0
    3.3419    2.9779   -0.1886 H   0  0  0  0  0  0  0  0  0  0  0  0
   -1.3628    4.7883   -0.4328 H   0  0  0  0  0  0  0  0  0  0  0  0
   -3.2246    3.1337   -0.1615 H   0  0  0  0  0  0  0  0  0  0  0  0
   -2.7808   -0.4812    0.4089 H   0  0  0  0  0  0  0  0  0  0  0  0
   -4.7137    1.6033    0.9312 H   0  0  0  0  0  0  0  0  0  0  0  0
   -5.5094    0.7316   -1.7167 H   0  0  0  0  0  0  0  0  0  0  0  0
   -5.3033    2.3863   -1.0735 H   0  0  0  0  0  0  0  0  0  0  0  0
   -3.8953    1.5970   -1.8611 H   0  0  0  0  0  0  0  0  0  0  0  0
   -3.9843   -0.8971    2.0674 H   0  0  0  0  0  0  0  0  0  0  0  0
   -5.2572   -2.9288    2.5645 H   0  0  0  0  0  0  0  0  0  0  0  0
   -7.8593   -2.0441   -0.7082 H   0  0  0  0  0  0  0  0  0  0  0  0
    2.4341   -2.7339    0.8935 H   0  0  0  0  0  0  0  0  0  0  0  0
  1  2  1  0
  2  3  1  0
  2  4  1  0
  4  5  1  0
  5  6  2  0
  6  7  1  0
  7  8  1  0
  8  9  1  0
  9 10  2  0
 10 11  1  0
 11 12  2  0
 12 13  1  0
 13 14  2  0
 14 15  1  0
 15 16  1  0
 16 17  1  0
 16 18  1  0
 18 19  2  0
 19 20  1  0
 20 21  2  0
 21 22  1  0
 21 23  1  0
 23 24  2  0
 14 25  1  0
 25 26  2  0
  7 27  2  0
 27 28  1  0
 28  5  1  0
 26  8  1  0
 26 11  1  0
 24 18  1  0
  1 29  1  0
  1 30  1  0
  1 31  1  0
  2 32  1  0
  3 33  1  0
  3 34  1  0
  3 35  1  0
  6 36  1  0
  9 37  1  0
 12 38  1  0
 13 39  1  0
 15 40  1  0
 16 41  1  1
 17 42  1  0
 17 43  1  0
 17 44  1  0
 19 45  1  0
 20 46  1  0
 23 47  1  0
 28 48  1  0
M  END
$$$$
