
     RDKit          3D

 52 51  0  0  0  0  0  0  0  0999 V2000
   -4.6664   -0.0896    3.2111 C   0  0  0  0  0  0  0  0  0  0  0  0
   -4.4250    0.5121    1.9175 N   0  0  0  0  0  0  0  0  0  0  0  0
   -3.1403    0.2780    1.3858 C   0  0  0  0  0  0  0  0  0  0  0  0
   -2.1320   -0.3728    1.8348 O   0  0  0  0  0  0  0  0  0  0  0  0
   -2.2510    0.5433    0.2263 C   0  0  1  0  0  0  0  0  0  0  0  0
   -0.9416   -0.0771    0.4483 N   0  0  0  0  0  0  0  0  0  0  0  0
    0.2544    0.6386    0.7273 C   0  0  0  0  0  0  0  0  0  0  0  0
    0.1425    1.8935    0.7777 O   0  0  0  0  0  0  0  0  0  0  0  0
    1.4442   -0.3623    0.9104 C   0  0  2  0  0  0  0  0  0  0  0  0
    2.5924    0.4388    1.3792 C   0  0  0  0  0  0  0  0  0  0  0  0
    3.8827   -0.1705    1.6834 C   0  0  0  0  0  0  0  0  0  0  0  0
    4.6777   -0.8601    0.6447 C   0  0  0  0  0  0  0  0  0  0  0  0
    4.8289    0.8116    2.3919 C   0  0  0  0  0  0  0  0  0  0  0  0
    1.5164   -0.9890   -0.4425 C   0  0  2  0  0  0  0  0  0  0  0  0
    2.4414   -1.9802   -0.6144 O   0  0  0  0  0  0  0  0  0  0  0  0
    1.7328    0.0670   -1.5047 C   0  0  0  0  0  0  0  0  0  0  0  0
    1.2251    1.1979   -1.8217 O   0  0  0  0  0  0  0  0  0  0  0  0
    2.7702   -0.1494   -2.4882 N   0  0  0  0  0  0  0  0  0  0  0  0
    2.8661    0.8710   -3.3894 O   0  0  0  0  0  0  0  0  0  0  0  0
   -2.8242    0.1336   -1.0926 C   0  0  0  0  0  0  0  0  0  0  0  0
   -1.8656    0.4208   -2.2574 C   0  0  0  0  0  0  0  0  0  0  0  0
   -4.1010    0.9057   -1.4260 C   0  0  0  0  0  0  0  0  0  0  0  0
   -3.1806   -1.3197   -1.1630 C   0  0  0  0  0  0  0  0  0  0  0  0
   -3.7412   -0.0384    3.8245 H   0  0  0  0  0  0  0  0  0  0  0  0
   -5.4105    0.5247    3.7641 H   0  0  0  0  0  0  0  0  0  0  0  0
   -5.0480   -1.1169    3.1733 H   0  0  0  0  0  0  0  0  0  0  0  0
   -4.8559    1.0934    1.1729 H   0  0  0  0  0  0  0  0  0  0  0  0
   -2.0686    1.6375    0.2041 H   0  0  0  0  0  0  0  0  0  0  0  0
   -1.1485   -1.0877    0.3502 H   0  0  0  0  0  0  0  0  0  0  0  0
    1.0998   -1.0368    1.7112 H   0  0  0  0  0  0  0  0  0  0  0  0
    2.7414    1.3468    0.6914 H   0  0  0  0  0  0  0  0  0  0  0  0
    2.2568    0.9812    2.3341 H   0  0  0  0  0  0  0  0  0  0  0  0
    3.6852   -0.9637    2.4856 H   0  0  0  0  0  0  0  0  0  0  0  0
    4.5796   -0.4936   -0.3866 H   0  0  0  0  0  0  0  0  0  0  0  0
    4.6782   -1.9870    0.7215 H   0  0  0  0  0  0  0  0  0  0  0  0
    5.8016   -0.6585    0.8484 H   0  0  0  0  0  0  0  0  0  0  0  0
    5.8067    0.2892    2.4510 H   0  0  0  0  0  0  0  0  0  0  0  0
    4.9817    1.6518    1.6716 H   0  0  0  0  0  0  0  0  0  0  0  0
    4.4412    1.1506    3.3527 H   0  0  0  0  0  0  0  0  0  0  0  0
    0.5198   -1.4297   -0.7296 H   0  0  0  0  0  0  0  0  0  0  0  0
    2.1871   -2.5261   -1.3908 H   0  0  0  0  0  0  0  0  0  0  0  0
    3.3858   -1.0082   -2.5030 H   0  0  0  0  0  0  0  0  0  0  0  0
    3.4831    1.5574   -2.9793 H   0  0  0  0  0  0  0  0  0  0  0  0
   -1.5482    1.4655   -2.1701 H   0  0  0  0  0  0  0  0  0  0  0  0
   -2.4141    0.2611   -3.2038 H   0  0  0  0  0  0  0  0  0  0  0  0
   -1.0424   -0.3202   -2.2602 H   0  0  0  0  0  0  0  0  0  0  0  0
   -5.0133    0.4018   -1.0988 H   0  0  0  0  0  0  0  0  0  0  0  0
   -4.1725    1.0763   -2.5256 H   0  0  0  0  0  0  0  0  0  0  0  0
   -4.0453    1.8892   -0.9187 H   0  0  0  0  0  0  0  0  0  0  0  0
   -3.6933   -1.4673   -2.1570 H   0  0  0  0  0  0  0  0  0  0  0  0
   -2.3368   -2.0141   -1.1516 H   0  0  0  0  0  0  0  0  0  0  0  0
   -3.9563   -1.5192   -0.3959 H   0  0  0  0  0  0  0  0  0  0  0  0
  1  2  1  0
  2  3  1  0
  3  4  2  0
  3  5  1  0
  5  6  1  0
  6  7  1  0
  7  8  2  0
  7  9  1  0
  9 10  1  0
 10 11  1  0
 11 12  1  0
 11 13  1  0
  9 14  1  0
 14 15  1  0
 14 16  1  0
 16 17  2  0
 16 18  1  0
 18 19  1  0
  5 20  1  0
 20 21  1  0
 20 22  1  0
 20 23  1  0
  1 24  1  0
  1 25  1  0
  1 26  1  0
  2 27  1  0
  5 28  1  6
  6 29  1  0
  9 30  1  1
 10 31  1  0
 10 32  1  0
 11 33  1  0
 12 34  1  0
 12 35  1  0
 12 36  1  0
 13 37  1  0
 13 38  1  0
 13 39  1  0
 14 40  1  6
 15 41  1  0
 18 42  1  0
 19 43  1  0
 21 44  1  0
 21 45  1  0
 21 46  1  0
 22 47  1  0
 22 48  1  0
 22 49  1  0
 23 50  1  0
 23 51  1  0
 23 52  1  0
M  END
$$$$
