
     RDKit          3D

126133  0  0  0  0  0  0  0  0999 V2000
   10.7780    2.6131    0.9386 C   0  0  0  0  0  0  0  0  0  0  0  0
   10.3556    1.5008    0.0284 C   0  0  0  0  0  0  0  0  0  0  0  0
   11.2771    0.8073   -0.5899 C   0  0  0  0  0  0  0  0  0  0  0  0
   10.9968   -0.2976   -1.5419 C   0  0  0  0  0  0  0  0  0  0  0  0
   11.3263   -1.5849   -0.8473 C   0  0  0  0  0  0  0  0  0  0  0  0
   10.4600   -1.6899    0.3729 C   0  0  0  0  0  0  0  0  0  0  0  0
   10.8734   -2.4588    1.3924 N   0  0  0  0  0  0  0  0  0  0  0  0
   10.1664   -2.6168    2.5289 C   0  0  0  0  0  0  0  0  0  0  0  0
   10.5654   -3.3431    3.4811 O   0  0  0  0  0  0  0  0  0  0  0  0
    8.9701   -1.9433    2.6129 C   0  0  0  0  0  0  0  0  0  0  0  0
    8.5092   -1.1448    1.5912 C   0  0  0  0  0  0  0  0  0  0  0  0
    9.2858   -1.0304    0.4586 C   0  0  0  0  0  0  0  0  0  0  0  0
    8.7457   -0.1457   -0.6313 C   0  0  1  0  0  0  0  0  0  0  0  0
    8.8890    1.2617   -0.1126 C   0  0  0  0  0  0  0  0  0  0  0  0
    9.5245   -0.2522   -1.8956 C   0  0  2  0  0  0  0  0  0  0  0  0
    9.1173   -1.3327   -2.8320 C   0  0  0  0  0  0  0  0  0  0  0  0
    8.2974   -2.4225   -2.2117 C   0  0  0  0  0  0  0  0  0  0  0  0
    7.2287   -1.9253   -1.2938 C   0  0  0  0  0  0  0  0  0  0  0  0
    7.3991   -0.5462   -0.8822 N   0  0  0  0  0  0  0  0  0  0  0  0
    6.2611    0.2970   -0.7732 C   0  0  0  0  0  0  0  0  0  0  0  0
    6.3634    1.4976   -0.3908 O   0  0  0  0  0  0  0  0  0  0  0  0
    4.8916   -0.1835   -1.1037 C   0  0  0  0  0  0  0  0  0  0  0  0
    3.9088    0.9509   -0.9021 C   0  0  0  0  0  0  0  0  0  0  0  0
    3.8881    1.3866    0.4537 N   0  0  0  0  0  0  0  0  0  0  0  0
    3.1448    2.5644    0.7173 C   0  0  0  0  0  0  0  0  0  0  0  0
    3.8666    0.3580    1.4243 C   0  0  0  0  0  0  0  0  0  0  0  0
    2.6625   -0.5017    1.5204 C   0  0  0  0  0  0  0  0  0  0  0  0
    1.4200    0.2549    1.8316 C   0  0  0  0  0  0  0  0  0  0  0  0
    0.1718   -0.5871    1.9646 C   0  0  0  0  0  0  0  0  0  0  0  0
   -0.1719   -1.3623    0.7155 C   0  0  0  0  0  0  0  0  0  0  0  0
   -0.3464   -0.4996   -0.4792 C   0  0  0  0  0  0  0  0  0  0  0  0
   -1.3755    0.5551   -0.4312 C   0  0  0  0  0  0  0  0  0  0  0  0
   -2.7967    0.1442   -0.2553 C   0  0  0  0  0  0  0  0  0  0  0  0
   -3.6050    1.3070   -0.2096 N   0  0  0  0  0  0  0  0  0  0  0  0
   -3.7344    2.0994   -1.3579 C   0  0  0  0  0  0  0  0  0  0  0  0
   -4.2880    1.6257    0.9685 C   0  0  0  0  0  0  0  0  0  0  0  0
   -5.4298    0.7642    1.3929 C   0  0  0  0  0  0  0  0  0  0  0  0
   -6.5535    0.7677    0.3904 C   0  0  0  0  0  0  0  0  0  0  0  0
   -6.3026    1.3578   -0.6771 O   0  0  0  0  0  0  0  0  0  0  0  0
   -7.7568    0.1479    0.6807 N   0  0  0  0  0  0  0  0  0  0  0  0
   -7.8601   -0.5021    2.0034 C   0  0  0  0  0  0  0  0  0  0  0  0
   -8.8800    0.3250    2.7824 C   0  0  0  0  0  0  0  0  0  0  0  0
  -10.2008    0.3565    2.0304 C   0  0  0  0  0  0  0  0  0  0  0  0
   -9.9771    0.8963    0.6629 C   0  0  2  0  0  0  0  0  0  0  0  0
  -11.2411    0.9887   -0.1230 C   0  0  0  0  0  0  0  0  0  0  0  0
  -10.9636    1.8896   -1.2765 C   0  0  0  0  0  0  0  0  0  0  0  0
   -9.6666    1.9512   -1.6474 C   0  0  0  0  0  0  0  0  0  0  0  0
   -9.0456    3.1843   -2.1822 C   0  0  0  0  0  0  0  0  0  0  0  0
   -8.8682    0.6802   -1.4965 C   0  0  0  0  0  0  0  0  0  0  0  0
   -8.9206    0.0990   -0.1331 C   0  0  1  0  0  0  0  0  0  0  0  0
   -9.4711   -1.3010   -0.2912 C   0  0  0  0  0  0  0  0  0  0  0  0
   -8.6756   -2.4073   -0.3018 C   0  0  0  0  0  0  0  0  0  0  0  0
   -9.2310   -3.6670   -0.4667 C   0  0  0  0  0  0  0  0  0  0  0  0
  -10.5875   -3.7751   -0.6182 C   0  0  0  0  0  0  0  0  0  0  0  0
  -11.1491   -4.9024   -0.7713 O   0  0  0  0  0  0  0  0  0  0  0  0
  -11.3715   -2.7030   -0.6107 N   0  0  0  0  0  0  0  0  0  0  0  0
  -10.8259   -1.4586   -0.4485 C   0  0  0  0  0  0  0  0  0  0  0  0
  -11.8096   -0.3372   -0.4951 C   0  0  0  0  0  0  0  0  0  0  0  0
    9.9635    2.9441    1.6018 H   0  0  0  0  0  0  0  0  0  0  0  0
   11.6102    2.2848    1.5930 H   0  0  0  0  0  0  0  0  0  0  0  0
   11.1412    3.4892    0.3570 H   0  0  0  0  0  0  0  0  0  0  0  0
   12.3344    1.0309   -0.4164 H   0  0  0  0  0  0  0  0  0  0  0  0
   11.6238   -0.2333   -2.4644 H   0  0  0  0  0  0  0  0  0  0  0  0
   11.2602   -2.4666   -1.4846 H   0  0  0  0  0  0  0  0  0  0  0  0
   12.3716   -1.5243   -0.4511 H   0  0  0  0  0  0  0  0  0  0  0  0
   11.7887   -2.9860    1.3552 H   0  0  0  0  0  0  0  0  0  0  0  0
    8.3745   -2.0444    3.5075 H   0  0  0  0  0  0  0  0  0  0  0  0
    7.5658   -0.6126    1.6584 H   0  0  0  0  0  0  0  0  0  0  0  0
    8.3463    1.4643    0.8142 H   0  0  0  0  0  0  0  0  0  0  0  0
    8.5622    2.0344   -0.8619 H   0  0  0  0  0  0  0  0  0  0  0  0
    9.3862    0.7255   -2.4474 H   0  0  0  0  0  0  0  0  0  0  0  0
   10.0708   -1.8242   -3.1871 H   0  0  0  0  0  0  0  0  0  0  0  0
    8.6200   -0.9611   -3.7504 H   0  0  0  0  0  0  0  0  0  0  0  0
    7.7922   -2.9598   -3.0488 H   0  0  0  0  0  0  0  0  0  0  0  0
    8.9641   -3.1984   -1.7390 H   0  0  0  0  0  0  0  0  0  0  0  0
    7.3128   -2.5268   -0.3422 H   0  0  0  0  0  0  0  0  0  0  0  0
    6.1994   -2.1238   -1.6533 H   0  0  0  0  0  0  0  0  0  0  0  0
    4.8727   -0.4618   -2.1800 H   0  0  0  0  0  0  0  0  0  0  0  0
    4.6242   -1.0809   -0.5287 H   0  0  0  0  0  0  0  0  0  0  0  0
    4.3101    1.8107   -1.5167 H   0  0  0  0  0  0  0  0  0  0  0  0
    2.9297    0.7121   -1.3448 H   0  0  0  0  0  0  0  0  0  0  0  0
    3.8880    3.4266    0.6007 H   0  0  0  0  0  0  0  0  0  0  0  0
    2.8320    2.6276    1.7785 H   0  0  0  0  0  0  0  0  0  0  0  0
    2.3549    2.8138   -0.0134 H   0  0  0  0  0  0  0  0  0  0  0  0
    4.8095   -0.2640    1.3662 H   0  0  0  0  0  0  0  0  0  0  0  0
    3.9772    0.8628    2.4323 H   0  0  0  0  0  0  0  0  0  0  0  0
    2.5302   -1.1910    0.6587 H   0  0  0  0  0  0  0  0  0  0  0  0
    2.8357   -1.1963    2.3965 H   0  0  0  0  0  0  0  0  0  0  0  0
    1.5521    0.7837    2.7954 H   0  0  0  0  0  0  0  0  0  0  0  0
    1.2655    1.0471    1.0570 H   0  0  0  0  0  0  0  0  0  0  0  0
   -0.6324    0.0815    2.3038 H   0  0  0  0  0  0  0  0  0  0  0  0
    0.3864   -1.3371    2.7580 H   0  0  0  0  0  0  0  0  0  0  0  0
    0.6488   -2.0660    0.5392 H   0  0  0  0  0  0  0  0  0  0  0  0
   -1.0747   -1.9386    0.9232 H   0  0  0  0  0  0  0  0  0  0  0  0
   -0.6324   -1.1966   -1.3281 H   0  0  0  0  0  0  0  0  0  0  0  0
    0.6009   -0.0399   -0.8392 H   0  0  0  0  0  0  0  0  0  0  0  0
   -1.1447    1.3774    0.2907 H   0  0  0  0  0  0  0  0  0  0  0  0
   -1.3281    1.0817   -1.4363 H   0  0  0  0  0  0  0  0  0  0  0  0
   -3.1442   -0.4792   -1.1304 H   0  0  0  0  0  0  0  0  0  0  0  0
   -2.9618   -0.5094    0.6293 H   0  0  0  0  0  0  0  0  0  0  0  0
   -2.7065    2.4834   -1.6494 H   0  0  0  0  0  0  0  0  0  0  0  0
   -4.2734    3.0550   -1.1076 H   0  0  0  0  0  0  0  0  0  0  0  0
   -4.1259    1.6221   -2.2724 H   0  0  0  0  0  0  0  0  0  0  0  0
   -3.5393    1.7528    1.8086 H   0  0  0  0  0  0  0  0  0  0  0  0
   -4.7000    2.6696    0.8517 H   0  0  0  0  0  0  0  0  0  0  0  0
   -5.1112   -0.2736    1.6482 H   0  0  0  0  0  0  0  0  0  0  0  0
   -5.8655    1.2399    2.3083 H   0  0  0  0  0  0  0  0  0  0  0  0
   -6.9240   -0.4784    2.5516 H   0  0  0  0  0  0  0  0  0  0  0  0
   -8.2786   -1.4978    1.8674 H   0  0  0  0  0  0  0  0  0  0  0  0
   -8.5101    1.3274    2.9870 H   0  0  0  0  0  0  0  0  0  0  0  0
   -9.0707   -0.1840    3.7460 H   0  0  0  0  0  0  0  0  0  0  0  0
  -10.6715   -0.6235    2.0739 H   0  0  0  0  0  0  0  0  0  0  0  0
  -10.8188    1.1250    2.5768 H   0  0  0  0  0  0  0  0  0  0  0  0
   -9.5573    1.9194    0.7477 H   0  0  0  0  0  0  0  0  0  0  0  0
  -11.9661    1.5762    0.5243 H   0  0  0  0  0  0  0  0  0  0  0  0
  -11.6906    2.4701   -1.8046 H   0  0  0  0  0  0  0  0  0  0  0  0
   -7.9778    3.1954   -1.8401 H   0  0  0  0  0  0  0  0  0  0  0  0
   -9.4975    4.1147   -1.7562 H   0  0  0  0  0  0  0  0  0  0  0  0
   -9.0514    3.2246   -3.2977 H   0  0  0  0  0  0  0  0  0  0  0  0
   -7.8654    0.8267   -1.8967 H   0  0  0  0  0  0  0  0  0  0  0  0
   -9.3313   -0.0806   -2.2301 H   0  0  0  0  0  0  0  0  0  0  0  0
   -7.5913   -2.3101   -0.1956 H   0  0  0  0  0  0  0  0  0  0  0  0
   -8.6277   -4.5514   -0.4785 H   0  0  0  0  0  0  0  0  0  0  0  0
  -12.4183   -2.8026   -0.7288 H   0  0  0  0  0  0  0  0  0  0  0  0
  -12.6518   -0.6189    0.1848 H   0  0  0  0  0  0  0  0  0  0  0  0
  -12.2045   -0.2678   -1.5367 H   0  0  0  0  0  0  0  0  0  0  0  0
  1  2  1  0
  2  3  2  0
  3  4  1  0
  4  5  1  0
  5  6  1  0
  6  7  1  0
  7  8  1  0
  8  9  2  0
  8 10  1  0
 10 11  2  0
 11 12  1  0
 12 13  1  0
 13 14  1  0
 13 15  1  0
 15 16  1  0
 16 17  1  0
 17 18  1  0
 18 19  1  0
 19 20  1  0
 20 21  2  0
 20 22  1  0
 22 23  1  0
 23 24  1  0
 24 25  1  0
 24 26  1  0
 26 27  1  0
 27 28  1  0
 28 29  1  0
 29 30  1  0
 30 31  1  0
 31 32  1  0
 32 33  1  0
 33 34  1  0
 34 35  1  0
 34 36  1  0
 36 37  1  0
 37 38  1  0
 38 39  2  0
 38 40  1  0
 40 41  1  0
 41 42  1  0
 42 43  1  0
 43 44  1  0
 44 45  1  0
 45 46  1  0
 46 47  2  0
 47 48  1  0
 47 49  1  0
 49 50  1  0
 50 51  1  0
 51 52  1  0
 52 53  2  0
 53 54  1  0
 54 55  2  0
 54 56  1  0
 56 57  1  0
 57 58  1  0
 14  2  1  0
 50 40  1  1
 57 51  2  0
 15  4  1  0
 50 44  1  0
 12  6  2  0
 13 19  1  6
 58 45  1  0
  1 59  1  0
  1 60  1  0
  1 61  1  0
  3 62  1  0
  4 63  1  0
  5 64  1  0
  5 65  1  0
  7 66  1  0
 10 67  1  0
 11 68  1  0
 14 69  1  0
 14 70  1  0
 15 71  1  6
 16 72  1  0
 16 73  1  0
 17 74  1  0
 17 75  1  0
 18 76  1  0
 18 77  1  0
 22 78  1  0
 22 79  1  0
 23 80  1  0
 23 81  1  0
 25 82  1  0
 25 83  1  0
 25 84  1  0
 26 85  1  0
 26 86  1  0
 27 87  1  0
 27 88  1  0
 28 89  1  0
 28 90  1  0
 29 91  1  0
 29 92  1  0
 30 93  1  0
 30 94  1  0
 31 95  1  0
 31 96  1  0
 32 97  1  0
 32 98  1  0
 33 99  1  0
 33100  1  0
 35101  1  0
 35102  1  0
 35103  1  0
 36104  1  0
 36105  1  0
 37106  1  0
 37107  1  0
 41108  1  0
 41109  1  0
 42110  1  0
 42111  1  0
 43112  1  0
 43113  1  0
 44114  1  1
 45115  1  0
 46116  1  0
 48117  1  0
 48118  1  0
 48119  1  0
 49120  1  0
 49121  1  0
 52122  1  0
 53123  1  0
 56124  1  0
 58125  1  0
 58126  1  0
M  END
$$$$
