
     RDKit          3D

 50 50  0  0  0  0  0  0  0  0999 V2000
   -7.5658    1.1052   -0.5291 C   0  0  0  0  0  0  0  0  0  0  0  0
   -6.7367   -0.0187   -0.3046 O   0  0  0  0  0  0  0  0  0  0  0  0
   -5.3587    0.0691   -0.2424 C   0  0  0  0  0  0  0  0  0  0  0  0
   -4.6297   -1.0594   -0.0228 C   0  0  0  0  0  0  0  0  0  0  0  0
   -5.3377   -2.3506    0.1427 C   0  0  0  0  0  0  0  0  0  0  0  0
   -3.2552   -0.9583    0.0370 C   0  0  0  0  0  0  0  0  0  0  0  0
   -2.4973   -2.1994    0.2905 C   0  0  0  0  0  0  0  0  0  0  0  0
   -2.6310    0.2478   -0.1210 C   0  0  0  0  0  0  0  0  0  0  0  0
   -1.2148    0.5013   -0.1094 C   0  0  0  0  0  0  0  0  0  0  0  0
   -0.0608   -0.1009   -0.0152 C   0  0  0  0  0  0  0  0  0  0  0  0
    1.3149    0.3696   -0.0264 C   0  0  0  0  0  0  0  0  0  0  0  0
    1.7808    1.7716   -0.1593 C   0  0  0  0  0  0  0  0  0  0  0  0
    2.2625   -0.5418    0.0943 C   0  0  0  0  0  0  0  0  0  0  0  0
    3.6603   -0.1552    0.0924 C   0  0  0  0  0  0  0  0  0  0  0  0
    4.6180   -1.0593    0.2128 C   0  0  0  0  0  0  0  0  0  0  0  0
    6.0314   -0.6811    0.2122 C   0  0  0  0  0  0  0  0  0  0  0  0
    6.3908    0.7537    0.0739 C   0  0  0  0  0  0  0  0  0  0  0  0
    6.9119   -1.6576    0.3377 C   0  0  0  0  0  0  0  0  0  0  0  0
    8.3288   -1.3305    0.3424 C   0  0  0  0  0  0  0  0  0  0  0  0
    9.5353   -0.6532    0.3048 O   0  0  0  0  0  0  0  0  0  0  0  0
    9.2786   -2.1435    0.4537 O   0  0  0  0  0  0  0  0  0  0  0  0
   -3.4145    1.3909   -0.3455 C   0  0  0  0  0  0  0  0  0  0  0  0
   -2.8317    2.7652   -0.5311 C   0  0  0  0  0  0  0  0  0  0  0  0
   -4.7771    1.2937   -0.4050 C   0  0  0  0  0  0  0  0  0  0  0  0
   -7.4390    1.5105   -1.5680 H   0  0  0  0  0  0  0  0  0  0  0  0
   -8.6213    0.7430   -0.4979 H   0  0  0  0  0  0  0  0  0  0  0  0
   -7.3884    1.9300    0.1674 H   0  0  0  0  0  0  0  0  0  0  0  0
   -5.1779   -2.7314    1.1722 H   0  0  0  0  0  0  0  0  0  0  0  0
   -6.4025   -2.2484   -0.0939 H   0  0  0  0  0  0  0  0  0  0  0  0
   -4.9043   -3.0550   -0.6224 H   0  0  0  0  0  0  0  0  0  0  0  0
   -1.8922   -2.5495   -0.5515 H   0  0  0  0  0  0  0  0  0  0  0  0
   -3.2517   -2.9959    0.5656 H   0  0  0  0  0  0  0  0  0  0  0  0
   -1.8673   -2.1640    1.2215 H   0  0  0  0  0  0  0  0  0  0  0  0
   -0.8597    1.5330   -0.2025 H   0  0  0  0  0  0  0  0  0  0  0  0
   -0.2484   -1.1468    0.0784 H   0  0  0  0  0  0  0  0  0  0  0  0
    2.4751    1.8650   -1.0194 H   0  0  0  0  0  0  0  0  0  0  0  0
    0.9333    2.4375   -0.2809 H   0  0  0  0  0  0  0  0  0  0  0  0
    2.3770    1.9894    0.7732 H   0  0  0  0  0  0  0  0  0  0  0  0
    2.0171   -1.6038    0.1981 H   0  0  0  0  0  0  0  0  0  0  0  0
    3.9497    0.8821   -0.0079 H   0  0  0  0  0  0  0  0  0  0  0  0
    4.2883   -2.0845    0.3105 H   0  0  0  0  0  0  0  0  0  0  0  0
    7.4626    0.9007    0.3267 H   0  0  0  0  0  0  0  0  0  0  0  0
    6.1119    1.1408   -0.9263 H   0  0  0  0  0  0  0  0  0  0  0  0
    5.7581    1.3079    0.8268 H   0  0  0  0  0  0  0  0  0  0  0  0
    6.7270   -2.7003    0.4410 H   0  0  0  0  0  0  0  0  0  0  0  0
    9.6570    0.1691   -0.2975 H   0  0  0  0  0  0  0  0  0  0  0  0
   -2.3071    2.8665   -1.4827 H   0  0  0  0  0  0  0  0  0  0  0  0
   -3.6441    3.5115   -0.4826 H   0  0  0  0  0  0  0  0  0  0  0  0
   -2.1784    2.9751    0.3496 H   0  0  0  0  0  0  0  0  0  0  0  0
   -5.3769    2.1590   -0.5756 H   0  0  0  0  0  0  0  0  0  0  0  0
  1  2  1  0
  2  3  1  0
  3  4  2  0
  4  5  1  0
  4  6  1  0
  6  7  1  0
  6  8  2  0
  8  9  1  0
  9 10  2  0
 10 11  1  0
 11 12  1  0
 11 13  2  0
 13 14  1  0
 14 15  2  0
 15 16  1  0
 16 17  1  0
 16 18  2  0
 18 19  1  0
 19 20  1  0
 19 21  2  0
  8 22  1  0
 22 23  1  0
 22 24  2  0
 24  3  1  0
  1 25  1  0
  1 26  1  0
  1 27  1  0
  5 28  1  0
  5 29  1  0
  5 30  1  0
  7 31  1  0
  7 32  1  0
  7 33  1  0
  9 34  1  0
 10 35  1  0
 12 36  1  0
 12 37  1  0
 12 38  1  0
 13 39  1  0
 14 40  1  0
 15 41  1  0
 17 42  1  0
 17 43  1  0
 17 44  1  0
 18 45  1  0
 20 46  1  0
 23 47  1  0
 23 48  1  0
 23 49  1  0
 24 50  1  0
M  END
$$$$
