
     RDKit          3D

 11 10  0  0  0  0  0  0  0  0999 V2000
   -1.3339    0.3524    0.0987 C   0  0  0  0  0  0  0  0  0  0  0  0
   -0.2621   -0.4283    0.7915 C   0  0  0  0  0  0  0  0  0  0  0  0
    1.0678   -0.3048    0.1382 C   0  0  0  0  0  0  0  0  0  0  0  0
    1.9763    0.5957    0.7191 O   0  0  0  0  0  0  0  0  0  0  0  0
    1.3890   -0.9635   -0.8854 O   0  0  0  0  0  0  0  0  0  0  0  0
   -1.4225    1.3930    0.5054 H   0  0  0  0  0  0  0  0  0  0  0  0
   -1.2014    0.4552   -1.0010 H   0  0  0  0  0  0  0  0  0  0  0  0
   -2.3220   -0.1241    0.3020 H   0  0  0  0  0  0  0  0  0  0  0  0
   -0.2325   -0.1477    1.8601 H   0  0  0  0  0  0  0  0  0  0  0  0
   -0.5997   -1.5016    0.7865 H   0  0  0  0  0  0  0  0  0  0  0  0
    2.9410    0.6737    0.3945 H   0  0  0  0  0  0  0  0  0  0  0  0
  1  2  1  0
  2  3  1  0
  3  4  1  0
  3  5  2  0
  1  6  1  0
  1  7  1  0
  1  8  1  0
  2  9  1  0
  2 10  1  0
  4 11  1  0
M  END
$$$$
