
     RDKit          3D

 63 67  0  0  0  0  0  0  0  0999 V2000
   11.2320    0.1934    1.4523 C   0  0  0  0  0  0  0  0  0  0  0  0
    9.8815    0.4711    1.6092 O   0  0  0  0  0  0  0  0  0  0  0  0
    8.8684    0.2321    0.7031 C   0  0  0  0  0  0  0  0  0  0  0  0
    7.6028    0.6515    1.1685 C   0  0  0  0  0  0  0  0  0  0  0  0
    6.5297    0.4794    0.3975 N   0  0  0  0  0  0  0  0  0  0  0  0
    6.6187   -0.0974   -0.8420 C   0  0  0  0  0  0  0  0  0  0  0  0
    5.3688   -0.2659   -1.6225 C   0  0  0  0  0  0  0  0  0  0  0  0
    5.4842   -0.6576   -2.7895 O   0  0  0  0  0  0  0  0  0  0  0  0
    4.1334    0.0186   -1.0119 N   0  0  0  0  0  0  0  0  0  0  0  0
    2.8720   -0.0638   -1.6360 C   0  0  0  0  0  0  0  0  0  0  0  0
    2.7396   -0.1899   -3.0249 C   0  0  0  0  0  0  0  0  0  0  0  0
    1.4331   -0.2303   -3.5233 C   0  0  0  0  0  0  0  0  0  0  0  0
    0.3045   -0.1643   -2.7937 C   0  0  0  0  0  0  0  0  0  0  0  0
    0.4416   -0.0430   -1.4047 C   0  0  0  0  0  0  0  0  0  0  0  0
    1.7311    0.0050   -0.8690 C   0  0  0  0  0  0  0  0  0  0  0  0
   -0.6998    0.0463   -0.4853 C   0  0  0  0  0  0  0  0  0  0  0  0
   -0.6460    1.4486    0.1372 C   0  0  0  0  0  0  0  0  0  0  0  0
   -0.1280    1.4668    1.5315 C   0  0  0  0  0  0  0  0  0  0  0  0
   -0.4241    0.3517    2.3148 O   0  0  0  0  0  0  0  0  0  0  0  0
   -0.5237   -0.9018    1.7652 C   0  0  0  0  0  0  0  0  0  0  0  0
   -0.4996   -2.1090    2.5186 N   0  0  0  0  0  0  0  0  0  0  0  0
   -0.6475   -1.0000    0.4894 N   0  0  0  0  0  0  0  0  0  0  0  0
   -2.0234   -0.0599   -1.1632 C   0  0  0  0  0  0  0  0  0  0  0  0
   -3.2009   -0.0289   -0.4060 C   0  0  0  0  0  0  0  0  0  0  0  0
   -4.4356   -0.0898   -1.0002 C   0  0  0  0  0  0  0  0  0  0  0  0
   -5.6374   -0.0874   -0.2023 C   0  0  0  0  0  0  0  0  0  0  0  0
   -6.6473   -0.0857    0.4867 C   0  0  0  0  0  0  0  0  0  0  0  0
   -7.9053   -0.0957    1.3165 C   0  0  0  0  0  0  0  0  0  0  0  0
   -8.8990   -0.9595    0.6534 C   0  0  0  0  0  0  0  0  0  0  0  0
   -7.5750   -0.6366    2.6973 C   0  0  0  0  0  0  0  0  0  0  0  0
   -8.3004    1.3609    1.4224 C   0  0  0  0  0  0  0  0  0  0  0  0
   -4.4879   -0.1798   -2.3525 N   0  0  0  0  0  0  0  0  0  0  0  0
   -3.3697   -0.2143   -3.0759 C   0  0  0  0  0  0  0  0  0  0  0  0
   -2.0943   -0.1608   -2.5397 C   0  0  0  0  0  0  0  0  0  0  0  0
   -0.9731   -0.2126   -3.2946 O   0  0  0  0  0  0  0  0  0  0  0  0
    7.8358   -0.4871   -1.2558 C   0  0  0  0  0  0  0  0  0  0  0  0
    8.9396   -0.3218   -0.4929 N   0  0  0  0  0  0  0  0  0  0  0  0
   11.4488   -0.8829    1.3499 H   0  0  0  0  0  0  0  0  0  0  0  0
   11.7746    0.6351    2.3374 H   0  0  0  0  0  0  0  0  0  0  0  0
   11.5738    0.7400    0.5296 H   0  0  0  0  0  0  0  0  0  0  0  0
    7.4903    1.1109    2.1222 H   0  0  0  0  0  0  0  0  0  0  0  0
    4.1852    0.3183    0.0081 H   0  0  0  0  0  0  0  0  0  0  0  0
    3.5675   -0.2699   -3.6859 H   0  0  0  0  0  0  0  0  0  0  0  0
    1.2723   -0.3348   -4.6241 H   0  0  0  0  0  0  0  0  0  0  0  0
    1.8767    0.1199    0.1993 H   0  0  0  0  0  0  0  0  0  0  0  0
   -1.6867    1.8789    0.1890 H   0  0  0  0  0  0  0  0  0  0  0  0
   -0.0908    2.1714   -0.4861 H   0  0  0  0  0  0  0  0  0  0  0  0
    0.9566    1.6730    1.6373 H   0  0  0  0  0  0  0  0  0  0  0  0
   -0.6025    2.3536    2.0712 H   0  0  0  0  0  0  0  0  0  0  0  0
   -1.2606   -2.3016    3.1980 H   0  0  0  0  0  0  0  0  0  0  0  0
    0.2605   -2.7865    2.3891 H   0  0  0  0  0  0  0  0  0  0  0  0
   -3.1875    0.0242    0.6786 H   0  0  0  0  0  0  0  0  0  0  0  0
   -9.8880   -0.9991    1.2094 H   0  0  0  0  0  0  0  0  0  0  0  0
   -8.6101   -2.0004    0.5375 H   0  0  0  0  0  0  0  0  0  0  0  0
   -9.1651   -0.4574   -0.3248 H   0  0  0  0  0  0  0  0  0  0  0  0
   -6.5049   -1.0115    2.6359 H   0  0  0  0  0  0  0  0  0  0  0  0
   -7.5656    0.1466    3.4543 H   0  0  0  0  0  0  0  0  0  0  0  0
   -8.2436   -1.4886    2.9122 H   0  0  0  0  0  0  0  0  0  0  0  0
   -7.4401    1.9270    1.8961 H   0  0  0  0  0  0  0  0  0  0  0  0
   -8.4626    1.8123    0.4310 H   0  0  0  0  0  0  0  0  0  0  0  0
   -9.1528    1.4805    2.1029 H   0  0  0  0  0  0  0  0  0  0  0  0
   -3.4135   -0.2707   -4.1734 H   0  0  0  0  0  0  0  0  0  0  0  0
    7.9697   -0.9708   -2.2544 H   0  0  0  0  0  0  0  0  0  0  0  0
  1  2  1  0
  2  3  1  0
  3  4  2  0
  4  5  1  0
  5  6  2  0
  6  7  1  0
  7  8  2  0
  7  9  1  0
  9 10  1  0
 10 11  2  0
 11 12  1  0
 12 13  2  0
 13 14  1  0
 14 15  2  0
 14 16  1  0
 16 17  1  0
 17 18  1  0
 18 19  1  0
 19 20  1  0
 20 21  1  0
 20 22  2  0
 16 23  1  0
 23 24  2  0
 24 25  1  0
 25 26  1  0
 26 27  3  0
 27 28  1  0
 28 29  1  0
 28 30  1  0
 28 31  1  0
 25 32  2  0
 32 33  1  0
 33 34  2  0
 34 35  1  0
  6 36  1  0
 36 37  2  0
 37  3  1  0
 15 10  1  0
 22 16  1  0
 34 23  1  0
 35 13  1  0
  1 38  1  0
  1 39  1  0
  1 40  1  0
  4 41  1  0
  9 42  1  0
 11 43  1  0
 12 44  1  0
 15 45  1  0
 17 46  1  0
 17 47  1  0
 18 48  1  0
 18 49  1  0
 21 50  1  0
 21 51  1  0
 24 52  1  0
 29 53  1  0
 29 54  1  0
 29 55  1  0
 30 56  1  0
 30 57  1  0
 30 58  1  0
 31 59  1  0
 31 60  1  0
 31 61  1  0
 33 62  1  0
 36 63  1  0
M  END
$$$$
