
     RDKit          3D

 47 49  0  0  0  0  0  0  0  0999 V2000
   -0.2713   -1.3944    3.8736 C   0  0  0  0  0  0  0  0  0  0  0  0
   -1.1578   -0.8546    2.8810 O   0  0  0  0  0  0  0  0  0  0  0  0
   -0.7234   -0.8219    1.5622 C   0  0  0  0  0  0  0  0  0  0  0  0
    0.5032   -1.2767    1.1594 C   0  0  0  0  0  0  0  0  0  0  0  0
    0.9270   -1.2374   -0.1724 C   0  0  0  0  0  0  0  0  0  0  0  0
    2.2464   -1.7448   -0.5556 C   0  0  0  0  0  0  0  0  0  0  0  0
    3.3621   -0.7985   -0.3654 C   0  0  0  0  0  0  0  0  0  0  0  0
    4.2111   -0.9677    0.7351 C   0  0  0  0  0  0  0  0  0  0  0  0
    5.2293   -0.1149    0.9277 N   0  0  0  0  0  0  0  0  0  0  0  0
    5.4874    0.9166    0.1059 C   0  0  0  0  0  0  0  0  0  0  0  0
    6.5978    1.7897    0.3764 N   0  0  0  0  0  0  0  0  0  0  0  0
    4.6906    1.0953   -0.9484 N   0  0  0  0  0  0  0  0  0  0  0  0
    3.6573    0.2651   -1.1814 C   0  0  0  0  0  0  0  0  0  0  0  0
    2.8076    0.4665   -2.3266 N   0  0  0  0  0  0  0  0  0  0  0  0
    0.0514   -0.7139   -1.0949 C   0  0  0  0  0  0  0  0  0  0  0  0
   -1.2142   -0.2340   -0.7430 C   0  0  0  0  0  0  0  0  0  0  0  0
   -1.5619   -0.3068    0.5969 C   0  0  0  0  0  0  0  0  0  0  0  0
   -2.8496    0.1823    0.9486 N   0  0  0  0  0  0  0  0  0  0  0  0
   -3.7986    0.7400    0.0147 C   0  0  0  0  0  0  0  0  0  0  0  0
   -4.0799    2.1928    0.3969 C   0  0  0  0  0  0  0  0  0  0  0  0
   -5.1288    0.0176    0.0684 C   0  0  0  0  0  0  0  0  0  0  0  0
   -5.7068    0.0834    1.3040 F   0  0  0  0  0  0  0  0  0  0  0  0
   -3.2930    0.7530   -1.3701 C   0  0  0  0  0  0  0  0  0  0  0  0
   -4.1227    1.2633   -2.3273 F   0  0  0  0  0  0  0  0  0  0  0  0
   -2.1160    0.3139   -1.7423 C   0  0  0  0  0  0  0  0  0  0  0  0
   -1.6955    0.3682   -3.1574 C   0  0  0  0  0  0  0  0  0  0  0  0
   -0.6209   -1.1876    4.8872 H   0  0  0  0  0  0  0  0  0  0  0  0
    0.7421   -0.9149    3.7781 H   0  0  0  0  0  0  0  0  0  0  0  0
   -0.1599   -2.4909    3.7645 H   0  0  0  0  0  0  0  0  0  0  0  0
    1.1934   -1.6883    1.8787 H   0  0  0  0  0  0  0  0  0  0  0  0
    2.5036   -2.7203   -0.0584 H   0  0  0  0  0  0  0  0  0  0  0  0
    2.2392   -2.0037   -1.6553 H   0  0  0  0  0  0  0  0  0  0  0  0
    4.0008   -1.8060    1.4023 H   0  0  0  0  0  0  0  0  0  0  0  0
    6.5081    2.7967    0.2182 H   0  0  0  0  0  0  0  0  0  0  0  0
    7.4672    1.3829    0.7258 H   0  0  0  0  0  0  0  0  0  0  0  0
    1.9944    1.1369   -2.2542 H   0  0  0  0  0  0  0  0  0  0  0  0
    2.9623   -0.0179   -3.2125 H   0  0  0  0  0  0  0  0  0  0  0  0
    0.2841   -0.6449   -2.1520 H   0  0  0  0  0  0  0  0  0  0  0  0
   -3.1233    0.1328    1.9500 H   0  0  0  0  0  0  0  0  0  0  0  0
   -3.2884    2.7967   -0.0890 H   0  0  0  0  0  0  0  0  0  0  0  0
   -4.0603    2.2418    1.4864 H   0  0  0  0  0  0  0  0  0  0  0  0
   -5.0787    2.4404   -0.0087 H   0  0  0  0  0  0  0  0  0  0  0  0
   -4.9525   -1.0362   -0.2427 H   0  0  0  0  0  0  0  0  0  0  0  0
   -5.8491    0.4365   -0.6621 H   0  0  0  0  0  0  0  0  0  0  0  0
   -2.5622    0.6755   -3.7948 H   0  0  0  0  0  0  0  0  0  0  0  0
   -1.3819   -0.6234   -3.5446 H   0  0  0  0  0  0  0  0  0  0  0  0
   -0.8697    1.1119   -3.3050 H   0  0  0  0  0  0  0  0  0  0  0  0
  1  2  1  0
  2  3  1  0
  3  4  2  0
  4  5  1  0
  5  6  1  0
  6  7  1  0
  7  8  2  0
  8  9  1  0
  9 10  2  0
 10 11  1  0
 10 12  1  0
 12 13  2  0
 13 14  1  0
  5 15  2  0
 15 16  1  0
 16 17  2  0
 17 18  1  0
 18 19  1  0
 19 20  1  0
 19 21  1  0
 21 22  1  0
 19 23  1  0
 23 24  1  0
 23 25  2  0
 25 26  1  0
 17  3  1  0
 13  7  1  0
 25 16  1  0
  1 27  1  0
  1 28  1  0
  1 29  1  0
  4 30  1  0
  6 31  1  0
  6 32  1  0
  8 33  1  0
 11 34  1  0
 11 35  1  0
 14 36  1  0
 14 37  1  0
 15 38  1  0
 18 39  1  0
 20 40  1  0
 20 41  1  0
 20 42  1  0
 21 43  1  0
 21 44  1  0
 26 45  1  0
 26 46  1  0
 26 47  1  0
M  END
$$$$
