
     RDKit          3D

 73 77  0  0  0  0  0  0  0  0999 V2000
    9.6235    2.7542    2.6097 C   0  0  0  0  0  0  0  0  0  0  0  0
    8.6634    2.1339    1.7743 O   0  0  0  0  0  0  0  0  0  0  0  0
    8.6138    0.8249    1.4310 C   0  0  0  0  0  0  0  0  0  0  0  0
    9.3933   -0.2051    1.7256 N   0  0  0  0  0  0  0  0  0  0  0  0
    8.9523   -1.3240    1.1476 N   0  0  0  0  0  0  0  0  0  0  0  0
    9.5649   -2.6302    1.2453 C   0  0  0  0  0  0  0  0  0  0  0  0
    7.8403   -0.9918    0.4540 C   0  0  0  0  0  0  0  0  0  0  0  0
    7.5703    0.3449    0.5889 C   0  0  0  0  0  0  0  0  0  0  0  0
    6.5247    1.1440    0.0606 N   0  0  0  0  0  0  0  0  0  0  0  0
    5.5409    0.6098   -0.7911 C   0  0  0  0  0  0  0  0  0  0  0  0
    5.8766    0.1012   -1.9765 N   0  0  0  0  0  0  0  0  0  0  0  0
    4.9874   -0.3581   -2.8716 C   0  0  0  0  0  0  0  0  0  0  0  0
    3.6433   -0.2769   -2.4970 C   0  0  0  0  0  0  0  0  0  0  0  0
    2.6748   -0.8082   -3.4983 C   0  0  0  0  0  0  0  0  0  0  0  0
    3.2672    0.2432   -1.2799 C   0  0  0  0  0  0  0  0  0  0  0  0
    1.8677    0.3242   -0.8914 C   0  0  0  0  0  0  0  0  0  0  0  0
    0.9554    1.2408   -1.4439 C   0  0  0  0  0  0  0  0  0  0  0  0
   -0.1868    1.0784   -0.7723 N   0  0  0  0  0  0  0  0  0  0  0  0
   -0.0839    0.1310    0.1648 C   0  0  0  0  0  0  0  0  0  0  0  0
   -1.0631   -0.3515    1.0423 C   0  0  0  0  0  0  0  0  0  0  0  0
   -2.3414    0.2195    1.1649 N   0  0  0  0  0  0  0  0  0  0  0  0
   -3.4737    0.0383    0.3389 C   0  0  0  0  0  0  0  0  0  0  0  0
   -3.3627   -0.7177   -0.6446 O   0  0  0  0  0  0  0  0  0  0  0  0
   -4.7508    0.7261    0.6289 C   0  0  1  0  0  0  0  0  0  0  0  0
   -4.5141    2.2252    0.8095 C   0  0  0  0  0  0  0  0  0  0  0  0
   -5.7221    0.5435   -0.3852 N   0  0  0  0  0  0  0  0  0  0  0  0
   -6.8169    1.5057   -0.2731 C   0  0  0  0  0  0  0  0  0  0  0  0
   -8.1365    0.9492    0.0781 C   0  0  0  0  0  0  0  0  0  0  0  0
   -8.1157   -0.2148    0.9029 N   0  0  0  0  0  0  0  0  0  0  0  0
   -9.4446   -0.8419    0.8307 C   0  0  0  0  0  0  0  0  0  0  0  0
   -7.1513   -1.1892    0.5472 C   0  0  0  0  0  0  0  0  0  0  0  0
   -6.2256   -0.7870   -0.5750 C   0  0  1  0  0  0  0  0  0  0  0  0
   -6.8633   -0.9564   -1.9453 C   0  0  0  0  0  0  0  0  0  0  0  0
   -0.6660   -1.3961    1.8854 C   0  0  0  0  0  0  0  0  0  0  0  0
    0.6225   -1.8849    1.8236 C   0  0  0  0  0  0  0  0  0  0  0  0
    1.5618   -1.3841    0.9498 C   0  0  0  0  0  0  0  0  0  0  0  0
    1.1948   -0.3473    0.0981 C   0  0  0  0  0  0  0  0  0  0  0  0
    4.2424    0.6735   -0.4561 N   0  0  0  0  0  0  0  0  0  0  0  0
    9.2415    3.7845    2.9000 H   0  0  0  0  0  0  0  0  0  0  0  0
   10.5217    2.9569    1.9988 H   0  0  0  0  0  0  0  0  0  0  0  0
    9.8419    2.1940    3.5305 H   0  0  0  0  0  0  0  0  0  0  0  0
    8.8049   -3.4244    1.0162 H   0  0  0  0  0  0  0  0  0  0  0  0
   10.4684   -2.7042    0.5945 H   0  0  0  0  0  0  0  0  0  0  0  0
    9.8883   -2.8574    2.2924 H   0  0  0  0  0  0  0  0  0  0  0  0
    7.2362   -1.6765   -0.1335 H   0  0  0  0  0  0  0  0  0  0  0  0
    6.4614    2.1687    0.3017 H   0  0  0  0  0  0  0  0  0  0  0  0
    5.3076   -0.7564   -3.8032 H   0  0  0  0  0  0  0  0  0  0  0  0
    2.8906   -1.9030   -3.5772 H   0  0  0  0  0  0  0  0  0  0  0  0
    1.6320   -0.5834   -3.2841 H   0  0  0  0  0  0  0  0  0  0  0  0
    2.9178   -0.4081   -4.5074 H   0  0  0  0  0  0  0  0  0  0  0  0
    1.1971    1.9317   -2.2676 H   0  0  0  0  0  0  0  0  0  0  0  0
   -1.0412    1.6428   -0.9839 H   0  0  0  0  0  0  0  0  0  0  0  0
   -2.4714    0.8760    1.9934 H   0  0  0  0  0  0  0  0  0  0  0  0
   -5.1640    0.3038    1.5916 H   0  0  0  0  0  0  0  0  0  0  0  0
   -3.4209    2.3956    1.0662 H   0  0  0  0  0  0  0  0  0  0  0  0
   -5.0505    2.6243    1.6923 H   0  0  0  0  0  0  0  0  0  0  0  0
   -4.6600    2.7954   -0.1211 H   0  0  0  0  0  0  0  0  0  0  0  0
   -6.5476    2.3665    0.3848 H   0  0  0  0  0  0  0  0  0  0  0  0
   -6.8984    1.9608   -1.2957 H   0  0  0  0  0  0  0  0  0  0  0  0
   -8.8188    0.7975   -0.7897 H   0  0  0  0  0  0  0  0  0  0  0  0
   -8.6764    1.7365    0.6875 H   0  0  0  0  0  0  0  0  0  0  0  0
   -9.3934   -1.8876    0.4668 H   0  0  0  0  0  0  0  0  0  0  0  0
   -9.9473   -0.8103    1.8234 H   0  0  0  0  0  0  0  0  0  0  0  0
  -10.1110   -0.2955    0.1199 H   0  0  0  0  0  0  0  0  0  0  0  0
   -6.5092   -1.4166    1.4197 H   0  0  0  0  0  0  0  0  0  0  0  0
   -7.6086   -2.1788    0.2686 H   0  0  0  0  0  0  0  0  0  0  0  0
   -5.3920   -1.5032   -0.5376 H   0  0  0  0  0  0  0  0  0  0  0  0
   -7.2211   -0.0136   -2.3752 H   0  0  0  0  0  0  0  0  0  0  0  0
   -6.1032   -1.3574   -2.6653 H   0  0  0  0  0  0  0  0  0  0  0  0
   -7.7017   -1.6588   -1.8410 H   0  0  0  0  0  0  0  0  0  0  0  0
   -1.3946   -1.7963    2.5752 H   0  0  0  0  0  0  0  0  0  0  0  0
    0.8780   -2.6968    2.4935 H   0  0  0  0  0  0  0  0  0  0  0  0
    2.5807   -1.7532    0.8820 H   0  0  0  0  0  0  0  0  0  0  0  0
  1  2  1  0
  2  3  1  0
  3  4  2  0
  4  5  1  0
  5  6  1  0
  5  7  1  0
  7  8  2  0
  8  9  1  0
  9 10  1  0
 10 11  2  0
 11 12  1  0
 12 13  2  0
 13 14  1  0
 13 15  1  0
 15 16  1  0
 16 17  2  0
 17 18  1  0
 18 19  1  0
 19 20  2  0
 20 21  1  0
 21 22  1  0
 22 23  2  0
 22 24  1  0
 24 25  1  0
 24 26  1  0
 26 27  1  0
 27 28  1  0
 28 29  1  0
 29 30  1  0
 29 31  1  0
 31 32  1  0
 32 33  1  0
 20 34  1  0
 34 35  2  0
 35 36  1  0
 36 37  2  0
 15 38  2  0
  8  3  1  0
 38 10  1  0
 37 16  1  0
 37 19  1  0
 32 26  1  0
  1 39  1  0
  1 40  1  0
  1 41  1  0
  6 42  1  0
  6 43  1  0
  6 44  1  0
  7 45  1  0
  9 46  1  0
 12 47  1  0
 14 48  1  0
 14 49  1  0
 14 50  1  0
 17 51  1  0
 18 52  1  0
 21 53  1  0
 24 54  1  1
 25 55  1  0
 25 56  1  0
 25 57  1  0
 27 58  1  0
 27 59  1  0
 28 60  1  0
 28 61  1  0
 30 62  1  0
 30 63  1  0
 30 64  1  0
 31 65  1  0
 31 66  1  0
 32 67  1  6
 33 68  1  0
 33 69  1  0
 33 70  1  0
 34 71  1  0
 35 72  1  0
 36 73  1  0
M  END
$$$$
