
     RDKit          3D

 41 41  0  0  0  0  0  0  0  0999 V2000
    4.2135   -1.4202   -0.8806 C   0  0  0  0  0  0  0  0  0  0  0  0
    4.0340    0.0531   -0.8602 C   0  0  0  0  0  0  0  0  0  0  0  0
    5.2721    0.8310   -0.4829 C   0  0  0  0  0  0  0  0  0  0  0  0
    2.9787    0.4893    0.0328 N   0  0  0  0  0  0  0  0  0  0  0  0
    3.1448    0.0917    1.3760 C   0  0  0  0  0  0  0  0  0  0  0  0
    2.1094    0.6904    2.2790 C   0  0  1  0  0  0  0  0  0  0  0  0
    2.1085    2.0957    2.2798 O   0  0  0  0  0  0  0  0  0  0  0  0
    0.7524    0.1503    2.0317 C   0  0  0  0  0  0  0  0  0  0  0  0
    0.2213    0.6104    0.8197 O   0  0  0  0  0  0  0  0  0  0  0  0
   -1.0200    0.2437    0.3868 C   0  0  0  0  0  0  0  0  0  0  0  0
   -1.5763    0.6781   -0.8055 C   0  0  0  0  0  0  0  0  0  0  0  0
   -2.8300    0.2991   -1.2300 C   0  0  0  0  0  0  0  0  0  0  0  0
   -3.5735   -0.5517   -0.4389 C   0  0  0  0  0  0  0  0  0  0  0  0
   -4.9060   -0.9063   -0.9765 C   0  0  0  0  0  0  0  0  0  0  0  0
   -5.8622    0.1107   -0.4675 C   0  0  0  0  0  0  0  0  0  0  0  0
   -7.2426    0.0487   -0.8020 N   0  0  0  0  0  0  0  0  0  0  0  0
   -5.5096    1.0618    0.2710 O   0  0  0  0  0  0  0  0  0  0  0  0
   -3.0536   -1.0083    0.7603 C   0  0  0  0  0  0  0  0  0  0  0  0
   -1.8034   -0.6151    1.1581 C   0  0  0  0  0  0  0  0  0  0  0  0
    5.1054   -1.7013   -1.4834 H   0  0  0  0  0  0  0  0  0  0  0  0
    4.3646   -1.8741    0.1121 H   0  0  0  0  0  0  0  0  0  0  0  0
    3.3250   -1.8792   -1.3644 H   0  0  0  0  0  0  0  0  0  0  0  0
    3.6754    0.3621   -1.8872 H   0  0  0  0  0  0  0  0  0  0  0  0
    5.8262    1.1070   -1.3998 H   0  0  0  0  0  0  0  0  0  0  0  0
    5.9149    0.2670    0.2231 H   0  0  0  0  0  0  0  0  0  0  0  0
    5.0185    1.7803    0.0376 H   0  0  0  0  0  0  0  0  0  0  0  0
    2.0430    0.3765   -0.3983 H   0  0  0  0  0  0  0  0  0  0  0  0
    4.1476    0.4664    1.7316 H   0  0  0  0  0  0  0  0  0  0  0  0
    3.2181   -1.0113    1.5247 H   0  0  0  0  0  0  0  0  0  0  0  0
    2.3736    0.4367    3.3660 H   0  0  0  0  0  0  0  0  0  0  0  0
    1.4366    2.3884    1.6248 H   0  0  0  0  0  0  0  0  0  0  0  0
    0.0938    0.4458    2.8840 H   0  0  0  0  0  0  0  0  0  0  0  0
    0.8052   -0.9753    1.9979 H   0  0  0  0  0  0  0  0  0  0  0  0
   -0.9180    1.3488   -1.3701 H   0  0  0  0  0  0  0  0  0  0  0  0
   -3.1696    0.6936   -2.1720 H   0  0  0  0  0  0  0  0  0  0  0  0
   -5.1527   -1.9195   -0.5591 H   0  0  0  0  0  0  0  0  0  0  0  0
   -4.8827   -0.9350   -2.0797 H   0  0  0  0  0  0  0  0  0  0  0  0
   -8.0950   -0.5293   -0.6630 H   0  0  0  0  0  0  0  0  0  0  0  0
   -7.5532    0.8323   -1.3883 H   0  0  0  0  0  0  0  0  0  0  0  0
   -3.6674   -1.6718    1.3482 H   0  0  0  0  0  0  0  0  0  0  0  0
   -1.3668   -0.9608    2.1014 H   0  0  0  0  0  0  0  0  0  0  0  0
  1  2  1  0
  2  3  1  0
  2  4  1  0
  4  5  1  0
  5  6  1  0
  6  7  1  0
  6  8  1  0
  8  9  1  0
  9 10  1  0
 10 11  2  0
 11 12  1  0
 12 13  2  0
 13 14  1  0
 14 15  1  0
 15 16  1  0
 15 17  2  0
 13 18  1  0
 18 19  2  0
 19 10  1  0
  1 20  1  0
  1 21  1  0
  1 22  1  0
  2 23  1  0
  3 24  1  0
  3 25  1  0
  3 26  1  0
  4 27  1  0
  5 28  1  0
  5 29  1  0
  6 30  1  1
  7 31  1  0
  8 32  1  0
  8 33  1  0
 11 34  1  0
 12 35  1  0
 14 36  1  0
 14 37  1  0
 16 38  1  0
 16 39  1  0
 18 40  1  0
 19 41  1  0
M  END
$$$$
