
     RDKit          3D

 50 53  0  0  0  0  0  0  0  0999 V2000
   -5.0587    2.3447    1.6374 C   0  0  0  0  0  0  0  0  0  0  0  0
   -3.5781    1.9366    1.6518 C   0  0  0  0  0  0  0  0  0  0  0  0
   -3.1887    1.1405    0.7009 O   0  0  0  0  0  0  0  0  0  0  0  0
   -2.7432    0.3500   -0.2201 C   0  0  0  0  0  0  0  0  0  0  0  0
   -1.3871   -0.0700   -0.2690 C   0  0  0  0  0  0  0  0  0  0  0  0
   -0.9124   -0.8954   -1.2288 C   0  0  0  0  0  0  0  0  0  0  0  0
    0.5172   -1.3641   -1.3617 C   0  0  2  0  0  0  0  0  0  0  0  0
    0.4382   -2.7892   -1.2094 N   0  0  0  0  0  0  0  0  0  0  0  0
    1.1796   -3.5040   -0.2470 C   0  0  0  0  0  0  0  0  0  0  0  0
    1.0504   -4.7698   -0.1304 O   0  0  0  0  0  0  0  0  0  0  0  0
    2.0732   -2.8129    0.5954 N   0  0  0  0  0  0  0  0  0  0  0  0
    2.1642   -1.3780    0.4112 C   0  0  0  0  0  0  0  0  0  0  0  0
    3.1750   -0.6630    1.2256 C   0  0  0  0  0  0  0  0  0  0  0  0
    3.2431   -0.8452    2.5873 C   0  0  0  0  0  0  0  0  0  0  0  0
    4.2370   -0.2021    3.3312 C   0  0  0  0  0  0  0  0  0  0  0  0
    5.1238    0.5999    2.6732 C   0  0  0  0  0  0  0  0  0  0  0  0
    5.0694    0.7923    1.3131 C   0  0  0  0  0  0  0  0  0  0  0  0
    4.0840    0.1515    0.5925 C   0  0  0  0  0  0  0  0  0  0  0  0
    1.4649   -0.7321   -0.4682 C   0  0  0  0  0  0  0  0  0  0  0  0
    1.6267    0.7723   -0.6050 C   0  0  0  0  0  0  0  0  0  0  0  0
    1.7050    1.4113   -1.7780 C   0  0  0  0  0  0  0  0  0  0  0  0
    1.8311    2.7371   -1.8616 C   0  0  0  0  0  0  0  0  0  0  0  0
    1.8501    3.2341   -0.0724 S   0  0  0  0  0  0  0  0  0  0  0  0
    1.6811    1.5411    0.5302 C   0  0  0  0  0  0  0  0  0  0  0  0
   -1.8201   -1.3317   -2.1907 C   0  0  0  0  0  0  0  0  0  0  0  0
   -3.1402   -0.9523   -2.1833 C   0  0  0  0  0  0  0  0  0  0  0  0
   -4.0591   -1.4167   -3.1874 N   0  0  0  0  0  4  0  0  0  0  0  0
   -3.5885   -1.7114   -4.2988 O   0  0  0  0  0  0  0  0  0  0  0  0
   -5.3992   -1.5483   -2.9860 O   0  0  0  0  0  1  0  0  0  0  0  0
   -3.6202   -0.1209   -1.2188 C   0  0  0  0  0  0  0  0  0  0  0  0
   -4.9386    0.2946   -1.1611 O   0  0  0  0  0  0  0  0  0  0  0  0
   -5.2540    3.2002    2.2828 H   0  0  0  0  0  0  0  0  0  0  0  0
   -5.6247    1.4755    2.0244 H   0  0  0  0  0  0  0  0  0  0  0  0
   -5.3516    2.5050    0.5875 H   0  0  0  0  0  0  0  0  0  0  0  0
   -3.0254    2.9153    1.7784 H   0  0  0  0  0  0  0  0  0  0  0  0
   -3.4680    1.4520    2.6792 H   0  0  0  0  0  0  0  0  0  0  0  0
   -0.7503    0.2929    0.5200 H   0  0  0  0  0  0  0  0  0  0  0  0
    0.8267   -1.1322   -2.4461 H   0  0  0  0  0  0  0  0  0  0  0  0
   -0.2015   -3.3684   -1.8367 H   0  0  0  0  0  0  0  0  0  0  0  0
    2.6586   -3.2670    1.3268 H   0  0  0  0  0  0  0  0  0  0  0  0
    2.5279   -1.4804    3.0514 H   0  0  0  0  0  0  0  0  0  0  0  0
    4.3034   -0.3345    4.3955 H   0  0  0  0  0  0  0  0  0  0  0  0
    5.8880    1.0914    3.2620 H   0  0  0  0  0  0  0  0  0  0  0  0
    5.7983    1.4446    0.8133 H   0  0  0  0  0  0  0  0  0  0  0  0
    4.0596    0.3116   -0.4930 H   0  0  0  0  0  0  0  0  0  0  0  0
    1.6635    0.8107   -2.7416 H   0  0  0  0  0  0  0  0  0  0  0  0
    1.9128    3.4729   -2.6511 H   0  0  0  0  0  0  0  0  0  0  0  0
    1.6331    1.2859    1.5766 H   0  0  0  0  0  0  0  0  0  0  0  0
   -1.5034   -1.9871   -2.9755 H   0  0  0  0  0  0  0  0  0  0  0  0
   -5.1731    1.1128   -1.7260 H   0  0  0  0  0  0  0  0  0  0  0  0
  1  2  1  0
  2  3  1  0
  3  4  1  0
  4  5  2  0
  5  6  1  0
  6  7  1  0
  7  8  1  0
  8  9  1  0
  9 10  2  0
  9 11  1  0
 11 12  1  0
 12 13  1  0
 13 14  2  0
 14 15  1  0
 15 16  2  0
 16 17  1  0
 17 18  2  0
 12 19  2  0
 19 20  1  0
 20 21  1  0
 21 22  2  0
 22 23  1  0
 23 24  1  0
  6 25  2  0
 25 26  1  0
 26 27  1  0
 27 28  2  0
 27 29  1  0
 26 30  2  0
 30 31  1  0
 30  4  1  0
 19  7  1  0
 24 20  2  0
 18 13  1  0
  1 32  1  0
  1 33  1  0
  1 34  1  0
  2 35  1  0
  2 36  1  0
  5 37  1  0
  7 38  1  6
  8 39  1  0
 11 40  1  0
 14 41  1  0
 15 42  1  0
 16 43  1  0
 17 44  1  0
 18 45  1  0
 21 46  1  0
 22 47  1  0
 24 48  1  0
 25 49  1  0
 31 50  1  0
M  CHG  2  27   1  29  -1
M  END
$$$$
