
     RDKit          3D

 46 49  0  0  0  0  0  0  0  0999 V2000
   -1.5919    3.9404    0.7256 C   0  0  0  0  0  0  0  0  0  0  0  0
   -1.5289    2.4692    0.7961 N   0  0  0  0  0  0  0  0  0  0  0  0
   -1.2392    1.5783   -0.2663 C   0  0  0  0  0  0  0  0  0  0  0  0
   -0.9905    1.9343   -1.4436 O   0  0  0  0  0  0  0  0  0  0  0  0
   -1.3038    0.2308    0.3365 C   0  0  1  0  0  0  0  0  0  0  0  0
   -2.4166   -0.6019   -0.2391 C   0  0  0  0  0  0  0  0  0  0  0  0
   -2.1191   -2.0490   -0.3522 C   0  0  0  0  0  0  0  0  0  0  0  0
   -3.3831   -2.8372   -0.0802 C   0  0  0  0  0  0  0  0  0  0  0  0
   -1.6048   -2.4010   -1.7434 C   0  0  0  0  0  0  0  0  0  0  0  0
   -1.0663   -2.5266    0.6269 C   0  0  0  0  0  0  0  0  0  0  0  0
    0.1772   -1.7627    0.2696 C   0  0  0  0  0  0  0  0  0  0  0  0
    1.3857   -2.4085    0.0939 C   0  0  0  0  0  0  0  0  0  0  0  0
    2.4681   -1.6182   -0.2328 C   0  0  0  0  0  0  0  0  0  0  0  0
    2.3823   -0.2447   -0.3845 C   0  0  0  0  0  0  0  0  0  0  0  0
    3.5501    0.5577   -0.7305 C   0  0  0  0  0  0  0  0  0  0  0  0
    3.4724    1.7129   -1.4700 C   0  0  0  0  0  0  0  0  0  0  0  0
    4.5982    2.3964   -1.7470 N   0  0  0  0  0  0  0  0  0  0  0  0
    5.8086    1.9622   -1.3069 C   0  0  0  0  0  0  0  0  0  0  0  0
    5.9077    0.8354   -0.5823 N   0  0  0  0  0  0  0  0  0  0  0  0
    4.8007    0.1563   -0.3055 C   0  0  0  0  0  0  0  0  0  0  0  0
    1.1252    0.3415   -0.1912 C   0  0  0  0  0  0  0  0  0  0  0  0
    0.0223   -0.4026    0.1341 C   0  0  0  0  0  0  0  0  0  0  0  0
   -1.6273    0.4680    1.7007 N   0  0  0  0  0  0  0  0  0  0  0  0
   -1.7537    1.7023    1.9648 C   0  0  0  0  0  0  0  0  0  0  0  0
   -2.0779    2.3099    3.2448 N   0  0  0  0  0  0  0  0  0  0  0  0
   -2.1549    4.3054    1.5834 H   0  0  0  0  0  0  0  0  0  0  0  0
   -2.1109    4.2134   -0.2013 H   0  0  0  0  0  0  0  0  0  0  0  0
   -0.5370    4.2732    0.7144 H   0  0  0  0  0  0  0  0  0  0  0  0
   -2.6284   -0.2027   -1.2648 H   0  0  0  0  0  0  0  0  0  0  0  0
   -3.3557   -0.4523    0.3318 H   0  0  0  0  0  0  0  0  0  0  0  0
   -3.2865   -3.4638    0.8476 H   0  0  0  0  0  0  0  0  0  0  0  0
   -3.6151   -3.5388   -0.8992 H   0  0  0  0  0  0  0  0  0  0  0  0
   -4.2516   -2.1538    0.1033 H   0  0  0  0  0  0  0  0  0  0  0  0
   -0.5178   -2.2166   -1.8210 H   0  0  0  0  0  0  0  0  0  0  0  0
   -1.7501   -3.5143   -1.8335 H   0  0  0  0  0  0  0  0  0  0  0  0
   -2.2016   -1.8462   -2.4666 H   0  0  0  0  0  0  0  0  0  0  0  0
   -0.9196   -3.5983    0.5075 H   0  0  0  0  0  0  0  0  0  0  0  0
   -1.3432   -2.2839    1.6718 H   0  0  0  0  0  0  0  0  0  0  0  0
    1.4789   -3.4783    0.2068 H   0  0  0  0  0  0  0  0  0  0  0  0
    3.4541   -2.0728   -0.3852 H   0  0  0  0  0  0  0  0  0  0  0  0
    2.4937    2.0574   -1.8218 H   0  0  0  0  0  0  0  0  0  0  0  0
    6.7291    2.4997   -1.5200 H   0  0  0  0  0  0  0  0  0  0  0  0
    4.8703   -0.7693    0.2882 H   0  0  0  0  0  0  0  0  0  0  0  0
    1.0561    1.4202   -0.3102 H   0  0  0  0  0  0  0  0  0  0  0  0
   -1.3990    2.3242    4.0338 H   0  0  0  0  0  0  0  0  0  0  0  0
   -3.0060    2.7545    3.4175 H   0  0  0  0  0  0  0  0  0  0  0  0
  1  2  1  0
  2  3  1  0
  3  4  2  0
  3  5  1  0
  5  6  1  6
  6  7  1  0
  7  8  1  0
  7  9  1  0
  7 10  1  0
 10 11  1  0
 11 12  2  0
 12 13  1  0
 13 14  2  0
 14 15  1  0
 15 16  2  0
 16 17  1  0
 17 18  2  0
 18 19  1  0
 19 20  2  0
 14 21  1  0
 21 22  2  0
  5 23  1  0
 23 24  2  0
 24 25  1  0
 24  2  1  0
 22  5  1  0
 22 11  1  0
 20 15  1  0
  1 26  1  0
  1 27  1  0
  1 28  1  0
  6 29  1  0
  6 30  1  0
  8 31  1  0
  8 32  1  0
  8 33  1  0
  9 34  1  0
  9 35  1  0
  9 36  1  0
 10 37  1  0
 10 38  1  0
 12 39  1  0
 13 40  1  0
 16 41  1  0
 18 42  1  0
 20 43  1  0
 21 44  1  0
 25 45  1  0
 25 46  1  0
M  END
$$$$
