
     RDKit          3D

 72 78  0  0  0  0  0  0  0  0999 V2000
   -8.1033   -3.1453   -0.4365 C   0  0  0  0  0  0  0  0  0  0  0  0
   -6.7172   -2.7655   -0.6051 N   0  0  0  0  0  0  0  0  0  0  0  0
   -6.0671   -2.7969   -1.9151 C   0  0  0  0  0  0  0  0  0  0  0  0
   -5.9769   -2.3578    0.5337 C   0  0  0  0  0  0  0  0  0  0  0  0
   -6.5644   -2.3466    1.6507 O   0  0  0  0  0  0  0  0  0  0  0  0
   -4.5716   -1.9558    0.4384 C   0  0  0  0  0  0  0  0  0  0  0  0
   -3.5293   -2.7618    0.0852 C   0  0  0  0  0  0  0  0  0  0  0  0
   -2.4050   -1.9711    0.1130 C   0  0  0  0  0  0  0  0  0  0  0  0
   -1.0544   -2.2251   -0.1661 C   0  0  0  0  0  0  0  0  0  0  0  0
   -0.2074   -1.1808   -0.0518 N   0  0  0  0  0  0  0  0  0  0  0  0
   -0.5984    0.0453    0.3069 C   0  0  0  0  0  0  0  0  0  0  0  0
    0.3440    1.1316    0.3554 N   0  0  0  0  0  0  0  0  0  0  0  0
    1.6667    0.9135   -0.0881 C   0  0  0  0  0  0  0  0  0  0  0  0
    2.5948    1.9318   -0.1255 C   0  0  0  0  0  0  0  0  0  0  0  0
    3.8915    1.7372   -0.5757 C   0  0  0  0  0  0  0  0  0  0  0  0
    4.3095    0.5073   -1.0068 C   0  0  0  0  0  0  0  0  0  0  0  0
    5.6243    0.1911   -1.5258 C   0  0  0  0  0  0  0  0  0  0  0  0
    5.7004   -0.3876   -2.6683 O   0  0  0  0  0  0  0  0  0  0  0  0
    6.8480    0.4749   -0.8602 N   0  0  0  0  0  0  0  0  0  0  0  0
    6.8779    1.1258    0.4252 C   0  0  0  0  0  0  0  0  0  0  0  0
    8.1924    1.0179    1.1416 C   0  0  0  0  0  0  0  0  0  0  0  0
    8.4744   -0.3891    1.5960 C   0  0  0  0  0  0  0  0  0  0  0  0
    9.1835   -1.0249    0.3948 C   0  0  0  0  0  0  0  0  0  0  0  0
    9.2569    0.0814   -0.6283 C   0  0  0  0  0  0  0  0  0  0  0  0
    8.0851    0.0806   -1.5367 C   0  0  0  0  0  0  0  0  0  0  0  0
    9.2694    1.3035    0.1808 N   0  0  0  0  0  0  0  0  0  0  0  0
    3.3377   -0.5040   -0.9529 C   0  0  0  0  0  0  0  0  0  0  0  0
    2.0909   -0.2890   -0.5136 N   0  0  0  0  0  0  0  0  0  0  0  0
   -1.8954    0.2905    0.5772 N   0  0  0  0  0  0  0  0  0  0  0  0
   -2.8044   -0.7175    0.4805 C   0  0  0  0  0  0  0  0  0  0  0  0
   -4.1177   -0.6974    0.6813 N   0  0  0  0  0  0  0  0  0  0  0  0
   -4.9939    0.3992    1.0867 C   0  0  2  0  0  0  0  0  0  0  0  0
   -6.0038    0.5914   -0.0303 C   0  0  0  0  0  0  0  0  0  0  0  0
   -5.8825    2.0466   -0.4377 C   0  0  1  0  0  0  0  0  0  0  0  0
   -6.3819    2.8909    0.6794 C   0  0  0  0  0  0  0  0  0  0  0  0
   -5.3500    2.6883    1.7681 C   0  0  0  0  0  0  0  0  0  0  0  0
   -4.3300    1.7184    1.1811 C   0  0  2  0  0  0  0  0  0  0  0  0
   -4.3598    2.2023   -0.2652 C   0  0  0  0  0  0  0  0  0  0  0  0
   -8.6375   -2.2175   -0.0859 H   0  0  0  0  0  0  0  0  0  0  0  0
   -8.1791   -3.8955    0.3762 H   0  0  0  0  0  0  0  0  0  0  0  0
   -8.5403   -3.5040   -1.3960 H   0  0  0  0  0  0  0  0  0  0  0  0
   -6.7716   -2.4680   -2.6951 H   0  0  0  0  0  0  0  0  0  0  0  0
   -5.1759   -2.1351   -1.9209 H   0  0  0  0  0  0  0  0  0  0  0  0
   -5.7074   -3.8379   -2.0834 H   0  0  0  0  0  0  0  0  0  0  0  0
   -3.5393   -3.8031   -0.1692 H   0  0  0  0  0  0  0  0  0  0  0  0
   -0.7639   -3.2134   -0.4512 H   0  0  0  0  0  0  0  0  0  0  0  0
    0.0896    2.0740    0.7107 H   0  0  0  0  0  0  0  0  0  0  0  0
    2.3348    2.9267    0.1995 H   0  0  0  0  0  0  0  0  0  0  0  0
    4.5994    2.5695   -0.6042 H   0  0  0  0  0  0  0  0  0  0  0  0
    6.6879    2.2360    0.3140 H   0  0  0  0  0  0  0  0  0  0  0  0
    6.0908    0.6677    1.0880 H   0  0  0  0  0  0  0  0  0  0  0  0
    8.2994    1.7719    1.9493 H   0  0  0  0  0  0  0  0  0  0  0  0
    7.5533   -0.9573    1.8696 H   0  0  0  0  0  0  0  0  0  0  0  0
    9.1505   -0.4200    2.4768 H   0  0  0  0  0  0  0  0  0  0  0  0
   10.2019   -1.3572    0.7129 H   0  0  0  0  0  0  0  0  0  0  0  0
    8.6133   -1.8891    0.0151 H   0  0  0  0  0  0  0  0  0  0  0  0
   10.2136    0.0118   -1.2128 H   0  0  0  0  0  0  0  0  0  0  0  0
    8.2788    0.8220   -2.3677 H   0  0  0  0  0  0  0  0  0  0  0  0
    7.9216   -0.9248   -1.9803 H   0  0  0  0  0  0  0  0  0  0  0  0
   10.1767    1.3808    0.6711 H   0  0  0  0  0  0  0  0  0  0  0  0
    3.6502   -1.4765   -1.2885 H   0  0  0  0  0  0  0  0  0  0  0  0
   -5.5032    0.0860    2.0329 H   0  0  0  0  0  0  0  0  0  0  0  0
   -5.8315   -0.0903   -0.8845 H   0  0  0  0  0  0  0  0  0  0  0  0
   -7.0158    0.4712    0.4069 H   0  0  0  0  0  0  0  0  0  0  0  0
   -6.2321    2.2683   -1.4248 H   0  0  0  0  0  0  0  0  0  0  0  0
   -6.3805    3.9565    0.3201 H   0  0  0  0  0  0  0  0  0  0  0  0
   -7.4040    2.6325    1.0328 H   0  0  0  0  0  0  0  0  0  0  0  0
   -5.8543    2.2105    2.6304 H   0  0  0  0  0  0  0  0  0  0  0  0
   -4.8895    3.6278    2.0947 H   0  0  0  0  0  0  0  0  0  0  0  0
   -3.3659    1.7771    1.6442 H   0  0  0  0  0  0  0  0  0  0  0  0
   -4.0914    3.2724   -0.3069 H   0  0  0  0  0  0  0  0  0  0  0  0
   -3.8116    1.5741   -0.9602 H   0  0  0  0  0  0  0  0  0  0  0  0
  1  2  1  0
  2  3  1  0
  2  4  1  0
  4  5  2  0
  4  6  1  0
  6  7  2  0
  7  8  1  0
  8  9  2  0
  9 10  1  0
 10 11  2  0
 11 12  1  0
 12 13  1  0
 13 14  2  0
 14 15  1  0
 15 16  2  0
 16 17  1  0
 17 18  2  0
 17 19  1  0
 19 20  1  0
 20 21  1  0
 21 22  1  0
 22 23  1  0
 23 24  1  0
 24 25  1  0
 24 26  1  0
 16 27  1  0
 27 28  2  0
 11 29  1  0
 29 30  2  0
 30 31  1  0
 31 32  1  0
 32 33  1  0
 33 34  1  0
 34 35  1  0
 35 36  1  0
 36 37  1  0
 37 38  1  0
 31  6  1  0
 37 32  1  0
 30  8  1  0
 38 34  1  0
 28 13  1  0
 25 19  1  0
 26 21  1  0
  1 39  1  0
  1 40  1  0
  1 41  1  0
  3 42  1  0
  3 43  1  0
  3 44  1  0
  7 45  1  0
  9 46  1  0
 12 47  1  0
 14 48  1  0
 15 49  1  0
 20 50  1  0
 20 51  1  0
 21 52  1  0
 22 53  1  0
 22 54  1  0
 23 55  1  0
 23 56  1  0
 24 57  1  0
 25 58  1  0
 25 59  1  0
 26 60  1  0
 27 61  1  0
 32 62  1  1
 33 63  1  0
 33 64  1  0
 34 65  1  6
 35 66  1  0
 35 67  1  0
 36 68  1  0
 36 69  1  0
 37 70  1  1
 38 71  1  0
 38 72  1  0
M  END
$$$$
