
     RDKit          3D

 62 64  0  0  0  0  0  0  0  0999 V2000
    7.5099    0.2378    1.5663 C   0  0  0  0  0  0  0  0  0  0  0  0
    5.9858    0.4161    1.6162 C   0  0  0  0  0  0  0  0  0  0  0  0
    5.3897   -0.8859    2.0341 C   0  0  0  0  0  0  0  0  0  0  0  0
    5.5219    0.9966    0.3276 C   0  0  0  0  0  0  0  0  0  0  0  0
    4.1187    1.2202    0.1982 N   0  0  0  0  0  0  0  0  0  0  0  0
    3.1824    0.2340   -0.2206 C   0  0  0  0  0  0  0  0  0  0  0  0
    3.5935   -1.0105   -0.6273 C   0  0  0  0  0  0  0  0  0  0  0  0
    2.6652   -1.9702   -1.0160 C   0  0  0  0  0  0  0  0  0  0  0  0
    1.3335   -1.6909   -1.0007 C   0  0  0  0  0  0  0  0  0  0  0  0
    0.8906   -0.4222   -0.5889 C   0  0  0  0  0  0  0  0  0  0  0  0
   -0.5571   -0.1668   -0.5560 C   0  0  0  0  0  0  0  0  0  0  0  0
   -1.4250   -1.0305    0.1348 C   0  0  0  0  0  0  0  0  0  0  0  0
   -2.7159   -0.5889   -0.0397 C   0  0  0  0  0  0  0  0  0  0  0  0
   -3.9566   -1.2259    0.5301 C   0  0  0  0  0  0  0  0  0  0  0  0
   -4.3809   -2.1426   -0.4011 O   0  0  0  0  0  0  0  0  0  0  0  0
   -5.5159   -2.8384   -0.0722 C   0  0  0  0  0  0  0  0  0  0  0  0
   -5.4012   -3.6436    1.1940 C   0  0  0  0  0  0  0  0  0  0  0  0
   -6.7553   -1.9875    0.0193 C   0  0  0  0  0  0  0  0  0  0  0  0
   -5.7428   -3.8353   -1.1801 C   0  0  0  0  0  0  0  0  0  0  0  0
   -6.7335   -4.6020   -1.1134 O   0  0  0  0  0  0  0  0  0  0  0  0
   -4.9035   -3.9409   -2.2695 O   0  0  0  0  0  0  0  0  0  0  0  0
   -2.6216    0.4935   -0.8032 N   0  0  0  0  0  0  0  0  0  0  0  0
   -1.3235    0.7543   -1.1189 N   0  0  0  0  0  0  0  0  0  0  0  0
   -0.9305    1.8623   -1.9545 C   0  0  0  0  0  0  0  0  0  0  0  0
   -0.7004    3.1415   -1.3005 C   0  0  0  0  0  0  0  0  0  0  0  0
    0.5420    3.7191   -1.1445 C   0  0  0  0  0  0  0  0  0  0  0  0
    0.7405    4.9463   -0.5538 C   0  0  0  0  0  0  0  0  0  0  0  0
   -0.3535    5.6326   -0.0954 C   0  0  0  0  0  0  0  0  0  0  0  0
   -1.5935    5.0619   -0.2484 C   0  0  0  0  0  0  0  0  0  0  0  0
   -1.8136    3.8360   -0.8362 C   0  0  0  0  0  0  0  0  0  0  0  0
   -3.4500    3.2336   -0.9697 Cl  0  0  0  0  0  0  0  0  0  0  0  0
    1.8199    0.5042   -0.2102 C   0  0  0  0  0  0  0  0  0  0  0  0
    7.8275    0.1292    0.4890 H   0  0  0  0  0  0  0  0  0  0  0  0
    7.8047   -0.7037    2.0620 H   0  0  0  0  0  0  0  0  0  0  0  0
    7.9478    1.1341    2.0008 H   0  0  0  0  0  0  0  0  0  0  0  0
    5.7321    1.1610    2.4178 H   0  0  0  0  0  0  0  0  0  0  0  0
    5.6843   -1.7497    1.4041 H   0  0  0  0  0  0  0  0  0  0  0  0
    4.2936   -0.8742    2.1471 H   0  0  0  0  0  0  0  0  0  0  0  0
    5.7696   -1.0615    3.0928 H   0  0  0  0  0  0  0  0  0  0  0  0
    6.1103    1.9485    0.1659 H   0  0  0  0  0  0  0  0  0  0  0  0
    5.9056    0.3238   -0.4816 H   0  0  0  0  0  0  0  0  0  0  0  0
    3.7796    2.1917    0.4356 H   0  0  0  0  0  0  0  0  0  0  0  0
    4.6614   -1.2860   -0.6768 H   0  0  0  0  0  0  0  0  0  0  0  0
    3.0101   -2.9590   -1.3374 H   0  0  0  0  0  0  0  0  0  0  0  0
    0.5654   -2.3955   -1.2915 H   0  0  0  0  0  0  0  0  0  0  0  0
   -1.1349   -1.8993    0.7099 H   0  0  0  0  0  0  0  0  0  0  0  0
   -3.7093   -1.6744    1.5138 H   0  0  0  0  0  0  0  0  0  0  0  0
   -4.6799   -0.3972    0.6729 H   0  0  0  0  0  0  0  0  0  0  0  0
   -6.1780   -4.4555    1.1194 H   0  0  0  0  0  0  0  0  0  0  0  0
   -4.4293   -4.1799    1.2673 H   0  0  0  0  0  0  0  0  0  0  0  0
   -5.6393   -3.0832    2.1063 H   0  0  0  0  0  0  0  0  0  0  0  0
   -6.6874   -1.3244    0.8881 H   0  0  0  0  0  0  0  0  0  0  0  0
   -7.6101   -2.6953    0.2009 H   0  0  0  0  0  0  0  0  0  0  0  0
   -6.9722   -1.4584   -0.9345 H   0  0  0  0  0  0  0  0  0  0  0  0
   -4.8154   -4.8281   -2.7264 H   0  0  0  0  0  0  0  0  0  0  0  0
   -1.7065    2.0002   -2.7499 H   0  0  0  0  0  0  0  0  0  0  0  0
    0.0454    1.5492   -2.4380 H   0  0  0  0  0  0  0  0  0  0  0  0
    1.4457    3.2066   -1.5002 H   0  0  0  0  0  0  0  0  0  0  0  0
    1.7315    5.3901   -0.4375 H   0  0  0  0  0  0  0  0  0  0  0  0
   -0.2372    6.5962    0.3726 H   0  0  0  0  0  0  0  0  0  0  0  0
   -2.4636    5.6104    0.1174 H   0  0  0  0  0  0  0  0  0  0  0  0
    1.5292    1.4763    0.1331 H   0  0  0  0  0  0  0  0  0  0  0  0
  1  2  1  0
  2  3  1  0
  2  4  1  0
  4  5  1  0
  5  6  1  0
  6  7  2  0
  7  8  1  0
  8  9  2  0
  9 10  1  0
 10 11  1  0
 11 12  2  0
 12 13  1  0
 13 14  1  0
 14 15  1  0
 15 16  1  0
 16 17  1  0
 16 18  1  0
 16 19  1  0
 19 20  2  0
 19 21  1  0
 13 22  2  0
 22 23  1  0
 23 24  1  0
 24 25  1  0
 25 26  2  0
 26 27  1  0
 27 28  2  0
 28 29  1  0
 29 30  2  0
 30 31  1  0
 10 32  2  0
 32  6  1  0
 23 11  1  0
 30 25  1  0
  1 33  1  0
  1 34  1  0
  1 35  1  0
  2 36  1  0
  3 37  1  0
  3 38  1  0
  3 39  1  0
  4 40  1  0
  4 41  1  0
  5 42  1  0
  7 43  1  0
  8 44  1  0
  9 45  1  0
 12 46  1  0
 14 47  1  0
 14 48  1  0
 17 49  1  0
 17 50  1  0
 17 51  1  0
 18 52  1  0
 18 53  1  0
 18 54  1  0
 21 55  1  0
 24 56  1  0
 24 57  1  0
 26 58  1  0
 27 59  1  0
 28 60  1  0
 29 61  1  0
 32 62  1  0
M  END
$$$$
