
     RDKit          3D

 55 59  0  0  0  0  0  0  0  0999 V2000
   -3.6845   -0.0242    0.2086 C   0  0  0  0  0  0  0  0  0  0  0  0
   -4.9334    0.4837    0.8486 C   0  0  0  0  0  0  0  0  0  0  0  0
   -6.1686    0.0190    0.3271 N   0  0  0  0  0  0  0  0  0  0  0  0
   -6.4953    0.4807   -0.9887 C   0  0  0  0  0  0  0  0  0  0  0  0
   -7.6073   -0.2164   -1.6788 C   0  0  0  0  0  0  0  0  0  0  0  0
   -8.4126   -1.0056   -0.6686 C   0  0  0  0  0  0  0  0  0  0  0  0
   -8.5605   -0.2238    0.6242 C   0  0  0  0  0  0  0  0  0  0  0  0
   -7.2332    0.0434    1.2720 C   0  0  0  0  0  0  0  0  0  0  0  0
   -2.6054    0.5967    0.8878 O   0  0  0  0  0  0  0  0  0  0  0  0
   -1.2787    0.3632    0.5743 C   0  0  0  0  0  0  0  0  0  0  0  0
   -0.7843   -0.4798   -0.4002 C   0  0  0  0  0  0  0  0  0  0  0  0
    0.5669   -0.6309   -0.6245 C   0  0  0  0  0  0  0  0  0  0  0  0
    1.4504    0.0898    0.1573 C   0  0  0  0  0  0  0  0  0  0  0  0
    1.0080    0.9530    1.1529 C   0  0  0  0  0  0  0  0  0  0  0  0
   -0.3527    1.0713    1.3404 C   0  0  0  0  0  0  0  0  0  0  0  0
    2.8980    0.0013    0.0087 C   0  0  0  0  0  0  0  0  0  0  0  0
    3.4088   -0.2502   -1.2479 C   0  0  0  0  0  0  0  0  0  0  0  0
    4.7258   -0.3484   -1.5018 N   0  0  0  0  0  0  0  0  0  0  0  0
    5.4116   -0.5812   -2.6066 N   0  0  0  0  0  0  0  0  0  0  0  0
    6.7282   -0.5765   -2.2896 C   0  0  0  0  0  0  0  0  0  0  0  0
    6.8286   -0.3254   -0.9171 C   0  0  0  0  0  0  0  0  0  0  0  0
    5.5296   -0.1814   -0.4246 C   0  0  0  0  0  0  0  0  0  0  0  0
    5.0761    0.0648    0.8160 N   0  0  0  0  0  0  0  0  0  0  0  0
    3.7501    0.1629    1.0670 C   0  0  0  0  0  0  0  0  0  0  0  0
    8.0711   -0.2251   -0.1419 C   0  0  0  0  0  0  0  0  0  0  0  0
    9.1725   -1.0785   -0.1551 C   0  0  0  0  0  0  0  0  0  0  0  0
   10.2349   -0.7764    0.6590 C   0  0  0  0  0  0  0  0  0  0  0  0
   10.2107    0.3125    1.4459 N   0  0  0  0  0  0  0  0  0  0  0  0
    9.1758    1.1611    1.4933 C   0  0  0  0  0  0  0  0  0  0  0  0
    8.0935    0.8957    0.6948 C   0  0  0  0  0  0  0  0  0  0  0  0
   -3.5842   -1.1135    0.3968 H   0  0  0  0  0  0  0  0  0  0  0  0
   -3.5684    0.2445   -0.8450 H   0  0  0  0  0  0  0  0  0  0  0  0
   -4.9358    1.5973    0.8160 H   0  0  0  0  0  0  0  0  0  0  0  0
   -4.8791    0.2276    1.9296 H   0  0  0  0  0  0  0  0  0  0  0  0
   -6.8102    1.5530   -0.8385 H   0  0  0  0  0  0  0  0  0  0  0  0
   -5.5556    0.5830   -1.5727 H   0  0  0  0  0  0  0  0  0  0  0  0
   -7.2933   -0.8401   -2.5379 H   0  0  0  0  0  0  0  0  0  0  0  0
   -8.3088    0.5278   -2.1024 H   0  0  0  0  0  0  0  0  0  0  0  0
   -7.9019   -1.9516   -0.3879 H   0  0  0  0  0  0  0  0  0  0  0  0
   -9.4376   -1.2347   -1.0237 H   0  0  0  0  0  0  0  0  0  0  0  0
   -9.0754    0.7371    0.4689 H   0  0  0  0  0  0  0  0  0  0  0  0
   -9.1588   -0.8625    1.3103 H   0  0  0  0  0  0  0  0  0  0  0  0
   -6.9846   -0.7391    2.0417 H   0  0  0  0  0  0  0  0  0  0  0  0
   -7.2944    1.0230    1.8014 H   0  0  0  0  0  0  0  0  0  0  0  0
   -1.5421   -1.0204   -0.9825 H   0  0  0  0  0  0  0  0  0  0  0  0
    0.9359   -1.2906   -1.3849 H   0  0  0  0  0  0  0  0  0  0  0  0
    1.6834    1.5295    1.7784 H   0  0  0  0  0  0  0  0  0  0  0  0
   -0.6826    1.7570    2.1296 H   0  0  0  0  0  0  0  0  0  0  0  0
    2.7280   -0.3758   -2.0778 H   0  0  0  0  0  0  0  0  0  0  0  0
    7.5329   -0.7390   -2.9869 H   0  0  0  0  0  0  0  0  0  0  0  0
    3.3728    0.3587    2.0541 H   0  0  0  0  0  0  0  0  0  0  0  0
    9.0379   -1.9058   -0.8384 H   0  0  0  0  0  0  0  0  0  0  0  0
   11.0375   -1.4907    0.5823 H   0  0  0  0  0  0  0  0  0  0  0  0
    9.1920    2.0297    2.1420 H   0  0  0  0  0  0  0  0  0  0  0  0
    7.2681    1.6203    0.7666 H   0  0  0  0  0  0  0  0  0  0  0  0
  1  2  1  0
  2  3  1  0
  3  4  1  0
  4  5  1  0
  5  6  1  0
  6  7  1  0
  7  8  1  0
  1  9  1  0
  9 10  1  0
 10 11  2  0
 11 12  1  0
 12 13  2  0
 13 14  1  0
 14 15  2  0
 13 16  1  0
 16 17  2  0
 17 18  1  0
 18 19  1  0
 19 20  2  0
 20 21  1  0
 21 22  2  0
 22 23  1  0
 23 24  2  0
 21 25  1  0
 25 26  2  0
 26 27  1  0
 27 28  2  0
 28 29  1  0
 29 30  2  0
  8  3  1  0
 15 10  1  0
 24 16  1  0
 30 25  1  0
 22 18  1  0
  1 31  1  0
  1 32  1  0
  2 33  1  0
  2 34  1  0
  4 35  1  0
  4 36  1  0
  5 37  1  0
  5 38  1  0
  6 39  1  0
  6 40  1  0
  7 41  1  0
  7 42  1  0
  8 43  1  0
  8 44  1  0
 11 45  1  0
 12 46  1  0
 14 47  1  0
 15 48  1  0
 17 49  1  0
 20 50  1  0
 24 51  1  0
 26 52  1  0
 27 53  1  0
 29 54  1  0
 30 55  1  0
M  END
$$$$
