
     RDKit          3D

 52 56  0  0  0  0  0  0  0  0999 V2000
    7.2826    0.1206   -2.8504 C   0  0  0  0  0  0  0  0  0  0  0  0
    6.6561   -0.6686   -1.7244 C   0  0  0  0  0  0  0  0  0  0  0  0
    7.0609   -1.9628   -1.4690 C   0  0  0  0  0  0  0  0  0  0  0  0
    6.4964   -2.6779   -0.4524 C   0  0  0  0  0  0  0  0  0  0  0  0
    5.5102   -2.0842    0.3196 C   0  0  0  0  0  0  0  0  0  0  0  0
    5.1318   -0.8032    0.0420 C   0  0  0  0  0  0  0  0  0  0  0  0
    4.0728   -0.1392    0.8562 C   0  0  0  0  0  0  0  0  0  0  0  0
    2.7271   -0.3680    0.2860 C   0  0  0  0  0  0  0  0  0  0  0  0
    2.6311   -1.0549   -0.7585 O   0  0  0  0  0  0  0  0  0  0  0  0
    1.5931    0.1975    0.9405 N   0  0  0  0  0  0  0  0  0  0  0  0
    1.5948    1.0026    2.1459 C   0  0  0  0  0  0  0  0  0  0  0  0
    0.5027    2.0316    1.8254 C   0  0  0  0  0  0  0  0  0  0  0  0
   -0.4573    1.1789    1.0685 C   0  0  0  0  0  0  0  0  0  0  0  0
    0.2194    0.0934    0.5522 C   0  0  0  0  0  0  0  0  0  0  0  0
   -0.4272   -0.8801   -0.2062 C   0  0  0  0  0  0  0  0  0  0  0  0
   -1.7832   -0.7064   -0.4175 C   0  0  0  0  0  0  0  0  0  0  0  0
   -2.4704    0.3764    0.0946 C   0  0  0  0  0  0  0  0  0  0  0  0
   -3.9010    0.5679   -0.1233 C   0  0  0  0  0  0  0  0  0  0  0  0
   -4.5393    1.2385   -1.1454 C   0  0  0  0  0  0  0  0  0  0  0  0
   -5.8698    1.1875   -0.9855 N   0  0  0  0  0  0  0  0  0  0  0  0
   -6.8988    1.7704   -1.8459 C   0  0  0  0  0  0  0  0  0  0  0  0
   -6.0754    0.4794    0.1462 C   0  0  0  0  0  0  0  0  0  0  0  0
   -7.2058    0.1130    0.7927 N   0  0  0  0  0  0  0  0  0  0  0  0
   -7.1602   -0.6072    1.9285 C   0  0  0  0  0  0  0  0  0  0  0  0
   -5.9799   -0.9775    2.4436 N   0  0  0  0  0  0  0  0  0  0  0  0
   -4.8085   -0.6573    1.8678 C   0  0  0  0  0  0  0  0  0  0  0  0
   -3.5597   -1.0535    2.4200 N   0  0  0  0  0  0  0  0  0  0  0  0
   -4.8740    0.0850    0.6982 C   0  0  0  0  0  0  0  0  0  0  0  0
   -1.8096    1.3273    0.8422 C   0  0  0  0  0  0  0  0  0  0  0  0
   -2.4703    2.4133    1.3624 F   0  0  0  0  0  0  0  0  0  0  0  0
    5.7022   -0.1282   -0.9593 N   0  0  0  0  0  0  0  0  0  0  0  0
    8.0300    0.8096   -2.4334 H   0  0  0  0  0  0  0  0  0  0  0  0
    7.6812   -0.6227   -3.5524 H   0  0  0  0  0  0  0  0  0  0  0  0
    6.4602    0.6948   -3.3472 H   0  0  0  0  0  0  0  0  0  0  0  0
    7.8467   -2.3981   -2.1046 H   0  0  0  0  0  0  0  0  0  0  0  0
    6.8433   -3.6882   -0.2872 H   0  0  0  0  0  0  0  0  0  0  0  0
    5.0676   -2.6548    1.1221 H   0  0  0  0  0  0  0  0  0  0  0  0
    4.1581   -0.5541    1.8799 H   0  0  0  0  0  0  0  0  0  0  0  0
    4.2783    0.9413    0.9369 H   0  0  0  0  0  0  0  0  0  0  0  0
    2.5452    1.5048    2.3322 H   0  0  0  0  0  0  0  0  0  0  0  0
    1.2683    0.3733    3.0239 H   0  0  0  0  0  0  0  0  0  0  0  0
    0.0440    2.4211    2.7569 H   0  0  0  0  0  0  0  0  0  0  0  0
    0.9460    2.8288    1.2021 H   0  0  0  0  0  0  0  0  0  0  0  0
    0.1282   -1.7273   -0.6027 H   0  0  0  0  0  0  0  0  0  0  0  0
   -2.3218   -1.4587   -1.0127 H   0  0  0  0  0  0  0  0  0  0  0  0
   -4.0277    1.7389   -1.9671 H   0  0  0  0  0  0  0  0  0  0  0  0
   -6.6152    1.6725   -2.9081 H   0  0  0  0  0  0  0  0  0  0  0  0
   -7.8604    1.1887   -1.7432 H   0  0  0  0  0  0  0  0  0  0  0  0
   -7.1145    2.7980   -1.5380 H   0  0  0  0  0  0  0  0  0  0  0  0
   -8.0906   -0.8937    2.4368 H   0  0  0  0  0  0  0  0  0  0  0  0
   -2.9561   -0.3563    2.9080 H   0  0  0  0  0  0  0  0  0  0  0  0
   -3.2020   -2.0320    2.3630 H   0  0  0  0  0  0  0  0  0  0  0  0
  1  2  1  0
  2  3  2  0
  3  4  1  0
  4  5  2  0
  5  6  1  0
  6  7  1  0
  7  8  1  0
  8  9  2  0
  8 10  1  0
 10 11  1  0
 11 12  1  0
 12 13  1  0
 13 14  2  0
 14 15  1  0
 15 16  2  0
 16 17  1  0
 17 18  1  0
 18 19  2  0
 19 20  1  0
 20 21  1  0
 20 22  1  0
 22 23  2  0
 23 24  1  0
 24 25  2  0
 25 26  1  0
 26 27  1  0
 26 28  2  0
 17 29  2  0
 29 30  1  0
  6 31  2  0
 31  2  1  0
 14 10  1  0
 28 18  1  0
 29 13  1  0
 28 22  1  0
  1 32  1  0
  1 33  1  0
  1 34  1  0
  3 35  1  0
  4 36  1  0
  5 37  1  0
  7 38  1  0
  7 39  1  0
 11 40  1  0
 11 41  1  0
 12 42  1  0
 12 43  1  0
 15 44  1  0
 16 45  1  0
 19 46  1  0
 21 47  1  0
 21 48  1  0
 21 49  1  0
 24 50  1  0
 27 51  1  0
 27 52  1  0
M  END
$$$$
