
     RDKit          3D

 32 35  0  0  0  0  0  0  0  0999 V2000
    0.9311    2.8659    0.9181 O   0  0  0  0  0  0  0  0  0  0  0  0
    0.3108    1.7263    0.5521 N   0  0  0  0  0  0  0  0  0  0  0  0
    0.8257    0.6444    0.2535 C   0  0  0  0  0  0  0  0  0  0  0  0
    0.2905   -0.6197   -0.1457 C   0  0  0  0  0  0  0  0  0  0  0  0
    1.4274   -1.4384   -0.3386 N   0  0  0  0  0  0  0  0  0  0  0  0
    2.6474   -0.7672   -0.0853 C   0  0  0  0  0  0  0  0  0  0  0  0
    2.2661    0.5263    0.2821 C   0  0  0  0  0  0  0  0  0  0  0  0
    3.3307    1.3715    0.5802 C   0  0  0  0  0  0  0  0  0  0  0  0
    4.6508    0.9979    0.5275 C   0  0  0  0  0  0  0  0  0  0  0  0
    4.9371   -0.2942    0.1563 C   0  0  0  0  0  0  0  0  0  0  0  0
    3.9636   -1.2093   -0.1585 C   0  0  0  0  0  0  0  0  0  0  0  0
   -0.9381   -1.0090   -0.3156 C   0  0  0  0  0  0  0  0  0  0  0  0
   -1.3726   -2.3154   -0.7229 C   0  0  0  0  0  0  0  0  0  0  0  0
   -0.6997   -3.3214   -0.9920 O   0  0  0  0  0  0  0  0  0  0  0  0
   -2.7932   -2.3181   -0.7865 N   0  0  0  0  0  0  0  0  0  0  0  0
   -3.1765   -0.9784   -0.4055 C   0  0  0  0  0  0  0  0  0  0  0  0
   -2.0822   -0.1994   -0.1257 C   0  0  0  0  0  0  0  0  0  0  0  0
   -2.3960    1.0554    0.2332 C   0  0  0  0  0  0  0  0  0  0  0  0
   -3.6706    1.5574    0.3259 C   0  0  0  0  0  0  0  0  0  0  0  0
   -4.7667    0.7342    0.0329 C   0  0  0  0  0  0  0  0  0  0  0  0
   -4.5100   -0.5639   -0.3413 C   0  0  0  0  0  0  0  0  0  0  0  0
    0.9333    3.7297    0.3572 H   0  0  0  0  0  0  0  0  0  0  0  0
    1.3936   -2.4315   -0.6351 H   0  0  0  0  0  0  0  0  0  0  0  0
    3.1775    2.3927    0.8768 H   0  0  0  0  0  0  0  0  0  0  0  0
    5.4738    1.6308    0.7519 H   0  0  0  0  0  0  0  0  0  0  0  0
    5.9474   -0.6459    0.0965 H   0  0  0  0  0  0  0  0  0  0  0  0
    4.1870   -2.2262   -0.4507 H   0  0  0  0  0  0  0  0  0  0  0  0
   -3.3933   -3.1382   -1.0566 H   0  0  0  0  0  0  0  0  0  0  0  0
   -1.7561    1.8197    0.4885 H   0  0  0  0  0  0  0  0  0  0  0  0
   -4.0035    2.5666    0.6110 H   0  0  0  0  0  0  0  0  0  0  0  0
   -5.7865    1.0582    0.0841 H   0  0  0  0  0  0  0  0  0  0  0  0
   -5.3485   -1.2007   -0.5675 H   0  0  0  0  0  0  0  0  0  0  0  0
  1  2  1  0
  2  3  2  0
  3  4  1  0
  4  5  1  0
  5  6  1  0
  6  7  2  0
  7  8  1  0
  8  9  2  0
  9 10  1  0
 10 11  2  0
  4 12  2  0
 12 13  1  0
 13 14  2  0
 13 15  1  0
 15 16  1  0
 16 17  2  0
 17 18  1  0
 18 19  2  0
 19 20  1  0
 20 21  2  0
  7  3  1  0
 17 12  1  0
 11  6  1  0
 21 16  1  0
  1 22  1  0
  5 23  1  0
  8 24  1  0
  9 25  1  0
 10 26  1  0
 11 27  1  0
 15 28  1  0
 18 29  1  0
 19 30  1  0
 20 31  1  0
 21 32  1  0
M  END
$$$$
