
     RDKit          3D

 50 53  0  0  0  0  0  0  0  0999 V2000
   -2.6662    1.3040   -1.5042 C   0  0  0  0  0  0  0  0  0  0  0  0
   -1.7054    1.1521   -0.3823 C   0  0  2  0  0  0  0  0  0  0  0  0
   -0.3340    1.5584   -0.7200 C   0  0  0  0  0  0  0  0  0  0  0  0
    0.7186    0.7168   -0.4968 C   0  0  0  0  0  0  0  0  0  0  0  0
    2.0569    1.0567   -0.7593 C   0  0  0  0  0  0  0  0  0  0  0  0
    3.0656    0.0926   -0.4843 N   0  0  0  0  0  0  0  0  0  0  0  0
    4.4508    0.2621   -0.6848 C   0  0  0  0  0  0  0  0  0  0  0  0
    4.9142    1.3280   -1.1424 O   0  0  0  0  0  0  0  0  0  0  0  0
    5.3828   -0.8524   -0.3442 C   0  0  0  0  0  0  0  0  0  0  0  0
    6.7262   -0.6778   -0.5425 C   0  0  0  0  0  0  0  0  0  0  0  0
    7.6576   -1.6723   -0.2482 C   0  0  0  0  0  0  0  0  0  0  0  0
    7.1748   -2.8606    0.2587 C   0  0  0  0  0  0  0  0  0  0  0  0
    8.2844   -4.1732    0.6587 Cl  0  0  0  0  0  0  0  0  0  0  0  0
    5.8158   -3.0017    0.4456 C   0  0  0  0  0  0  0  0  0  0  0  0
    4.9322   -2.0141    0.1494 N   0  0  0  0  0  0  0  0  0  0  0  0
    2.2903    2.3024   -1.2649 C   0  0  0  0  0  0  0  0  0  0  0  0
    1.2464    3.1954   -1.5097 C   0  0  0  0  0  0  0  0  0  0  0  0
   -0.0562    2.7946   -1.2278 C   0  0  0  0  0  0  0  0  0  0  0  0
   -1.0111    3.6731   -1.5198 F   0  0  0  0  0  0  0  0  0  0  0  0
   -1.6161   -0.2306    0.0694 N   0  0  0  0  0  0  0  0  0  0  0  0
   -2.5363   -0.8561    0.6234 C   0  0  0  0  0  0  0  0  0  0  0  0
   -2.3111   -2.2250    1.0198 N   0  0  0  0  0  0  0  0  0  0  0  0
   -3.8476   -0.2914    0.9130 C   0  0  0  0  0  0  0  0  0  0  0  0
   -4.6491   -1.0521    1.9715 C   0  0  0  0  0  0  0  0  0  0  0  0
   -5.5703   -1.5591    0.8996 C   0  0  0  0  0  0  0  0  0  0  0  0
   -4.8986   -0.6435   -0.0987 C   0  0  0  0  0  0  0  0  0  0  0  0
   -3.7894    1.4396    1.2672 S   0  0  0  0  0  6  0  0  0  0  0  0
   -4.9041    2.2171    0.6578 O   0  0  0  0  0  0  0  0  0  0  0  0
   -3.9026    1.6251    2.7687 O   0  0  0  0  0  0  0  0  0  0  0  0
   -2.1788    2.0094    0.7895 C   0  0  2  0  0  0  0  0  0  0  0  0
   -2.1508    3.3241    0.5254 F   0  0  0  0  0  0  0  0  0  0  0  0
   -3.6325    1.7029   -1.2072 H   0  0  0  0  0  0  0  0  0  0  0  0
   -2.8531    0.2705   -1.9220 H   0  0  0  0  0  0  0  0  0  0  0  0
   -2.2272    1.8438   -2.3872 H   0  0  0  0  0  0  0  0  0  0  0  0
    0.5310   -0.2681   -0.0966 H   0  0  0  0  0  0  0  0  0  0  0  0
    2.7707   -0.8644   -0.0852 H   0  0  0  0  0  0  0  0  0  0  0  0
    7.0605    0.2658   -0.9402 H   0  0  0  0  0  0  0  0  0  0  0  0
    8.7175   -1.5422   -0.4018 H   0  0  0  0  0  0  0  0  0  0  0  0
    5.4856   -3.9613    0.8491 H   0  0  0  0  0  0  0  0  0  0  0  0
    3.3089    2.6400   -1.4947 H   0  0  0  0  0  0  0  0  0  0  0  0
    1.4957    4.1648   -1.9097 H   0  0  0  0  0  0  0  0  0  0  0  0
   -1.6346   -2.5197    1.7270 H   0  0  0  0  0  0  0  0  0  0  0  0
   -2.8880   -2.9397    0.5390 H   0  0  0  0  0  0  0  0  0  0  0  0
   -5.1004   -0.3771    2.7160 H   0  0  0  0  0  0  0  0  0  0  0  0
   -4.0300   -1.8221    2.4749 H   0  0  0  0  0  0  0  0  0  0  0  0
   -6.6211   -1.2714    1.0974 H   0  0  0  0  0  0  0  0  0  0  0  0
   -5.4092   -2.6436    0.7182 H   0  0  0  0  0  0  0  0  0  0  0  0
   -5.5249    0.2421   -0.3891 H   0  0  0  0  0  0  0  0  0  0  0  0
   -4.5489   -1.1611   -1.0149 H   0  0  0  0  0  0  0  0  0  0  0  0
   -1.4887    1.7246    1.6390 H   0  0  0  0  0  0  0  0  0  0  0  0
  2  1  1  6
  2  3  1  0
  3  4  2  0
  4  5  1  0
  5  6  1  0
  6  7  1  0
  7  8  2  0
  7  9  1  0
  9 10  2  0
 10 11  1  0
 11 12  2  0
 12 13  1  0
 12 14  1  0
 14 15  2  0
  5 16  2  0
 16 17  1  0
 17 18  2  0
 18 19  1  0
  2 20  1  0
 20 21  2  0
 21 22  1  0
 21 23  1  0
 23 24  1  0
 24 25  1  0
 25 26  1  0
 23 27  1  0
 27 28  2  0
 27 29  2  0
 27 30  1  0
 30 31  1  0
 30  2  1  0
 18  3  1  0
 26 23  1  0
 15  9  1  0
  1 32  1  0
  1 33  1  0
  1 34  1  0
  4 35  1  0
  6 36  1  0
 10 37  1  0
 11 38  1  0
 14 39  1  0
 16 40  1  0
 17 41  1  0
 22 42  1  0
 22 43  1  0
 24 44  1  0
 24 45  1  0
 25 46  1  0
 25 47  1  0
 26 48  1  0
 26 49  1  0
 30 50  1  1
M  END
$$$$
