
     RDKit          3D

 45 48  0  0  0  0  0  0  0  0999 V2000
    2.1608    5.1614   -0.6626 C   0  0  0  0  0  0  0  0  0  0  0  0
    2.0441    3.6600   -0.4748 C   0  0  0  0  0  0  0  0  0  0  0  0
    1.4422    2.9663   -1.3188 O   0  0  0  0  0  0  0  0  0  0  0  0
    2.6149    3.0414    0.6537 N   0  0  0  0  0  0  0  0  0  0  0  0
    2.5932    1.6643    0.9669 C   0  0  0  0  0  0  0  0  0  0  0  0
    3.2107    1.2103    2.1432 C   0  0  0  0  0  0  0  0  0  0  0  0
    3.2515   -0.0949    2.5389 C   0  0  0  0  0  0  0  0  0  0  0  0
    2.6498   -1.0308    1.7359 C   0  0  0  0  0  0  0  0  0  0  0  0
    2.0232   -0.6795    0.5695 C   0  0  0  0  0  0  0  0  0  0  0  0
    1.4141   -1.7137   -0.2379 C   0  0  0  0  0  0  0  0  0  0  0  0
    2.0833   -2.6955   -0.8564 N   0  0  0  0  0  0  0  0  0  0  0  0
    1.1927   -3.4585   -1.5110 C   0  0  0  0  0  0  0  0  0  0  0  0
   -0.0343   -2.9754   -1.3170 N   0  0  0  0  0  0  0  0  0  0  0  0
   -1.3069   -3.4786   -1.8328 C   0  0  0  0  0  0  0  0  0  0  0  0
   -1.9239   -4.4791   -0.8969 C   0  0  0  0  0  0  0  0  0  0  0  0
   -2.1795   -3.9414    0.3489 F   0  0  0  0  0  0  0  0  0  0  0  0
   -1.0353   -5.5453   -0.8097 F   0  0  0  0  0  0  0  0  0  0  0  0
    0.0818   -1.8941   -0.5304 C   0  0  0  0  0  0  0  0  0  0  0  0
   -0.9502   -0.9993   -0.0176 C   0  0  0  0  0  0  0  0  0  0  0  0
   -1.1612   -0.8811    1.3563 C   0  0  0  0  0  0  0  0  0  0  0  0
   -2.1246   -0.0461    1.8805 C   0  0  0  0  0  0  0  0  0  0  0  0
   -2.8997    0.6922    1.0083 C   0  0  0  0  0  0  0  0  0  0  0  0
   -3.8934    1.5681    1.2575 N   0  0  0  0  0  0  0  0  0  0  0  0
   -4.3368    2.0258    0.0685 C   0  0  0  0  0  0  0  0  0  0  0  0
   -3.5779    1.3965   -0.8963 C   0  0  0  0  0  0  0  0  0  0  0  0
   -3.7704    1.6418   -2.2973 C   0  0  0  0  0  0  0  0  0  0  0  0
   -3.9100    1.8308   -3.4410 N   0  0  0  0  0  0  0  0  0  0  0  0
   -2.6829    0.5665   -0.3203 N   0  0  0  0  0  0  0  0  0  0  0  0
   -1.7468   -0.2466   -0.7952 N   0  0  0  0  0  0  0  0  0  0  0  0
    2.0172    0.6725    0.2227 C   0  0  0  0  0  0  0  0  0  0  0  0
    3.1547    5.4489   -0.9970 H   0  0  0  0  0  0  0  0  0  0  0  0
    1.9278    5.6463    0.3222 H   0  0  0  0  0  0  0  0  0  0  0  0
    1.3359    5.4418   -1.3469 H   0  0  0  0  0  0  0  0  0  0  0  0
    3.1206    3.6748    1.3535 H   0  0  0  0  0  0  0  0  0  0  0  0
    3.6894    1.9746    2.7758 H   0  0  0  0  0  0  0  0  0  0  0  0
    3.7520   -0.3444    3.4643 H   0  0  0  0  0  0  0  0  0  0  0  0
    2.6670   -2.0622    2.0253 H   0  0  0  0  0  0  0  0  0  0  0  0
    1.4198   -4.3376   -2.1118 H   0  0  0  0  0  0  0  0  0  0  0  0
   -1.9934   -2.6849   -2.1259 H   0  0  0  0  0  0  0  0  0  0  0  0
   -1.0281   -4.0492   -2.7653 H   0  0  0  0  0  0  0  0  0  0  0  0
   -2.8442   -4.8646   -1.3860 H   0  0  0  0  0  0  0  0  0  0  0  0
   -0.5520   -1.4615    2.0247 H   0  0  0  0  0  0  0  0  0  0  0  0
   -2.2718    0.0301    2.9544 H   0  0  0  0  0  0  0  0  0  0  0  0
   -5.1377    2.7469   -0.0233 H   0  0  0  0  0  0  0  0  0  0  0  0
    1.5143    0.9029   -0.6990 H   0  0  0  0  0  0  0  0  0  0  0  0
  1  2  1  0
  2  3  2  0
  2  4  1  0
  4  5  1  0
  5  6  2  0
  6  7  1  0
  7  8  2  0
  8  9  1  0
  9 10  1  0
 10 11  1  0
 11 12  2  0
 12 13  1  0
 13 14  1  0
 14 15  1  0
 15 16  1  0
 15 17  1  0
 13 18  1  0
 18 19  1  0
 19 20  1  0
 20 21  2  0
 21 22  1  0
 22 23  2  0
 23 24  1  0
 24 25  2  0
 25 26  1  0
 26 27  3  0
 25 28  1  0
 28 29  1  0
  9 30  2  0
 30  5  1  0
 18 10  2  0
 29 19  2  0
 28 22  1  0
  1 31  1  0
  1 32  1  0
  1 33  1  0
  4 34  1  0
  6 35  1  0
  7 36  1  0
  8 37  1  0
 12 38  1  0
 14 39  1  0
 14 40  1  0
 15 41  1  0
 20 42  1  0
 21 43  1  0
 24 44  1  0
 30 45  1  0
M  END
$$$$
