
     RDKit          3D

 52 55  0  0  0  0  0  0  0  0999 V2000
   -7.8236   -0.6628   -0.1382 N   0  0  0  0  0  0  0  0  0  0  0  0
   -6.5494   -0.1501   -0.6615 C   0  0  1  0  0  0  0  0  0  0  0  0
   -6.2859    1.1399    0.0863 C   0  0  0  0  0  0  0  0  0  0  0  0
   -4.9569    1.7531   -0.3368 C   0  0  0  0  0  0  0  0  0  0  0  0
   -3.9105    0.6548   -0.5337 C   0  0  1  0  0  0  0  0  0  0  0  0
   -2.6348    1.1969   -0.2303 N   0  0  0  0  0  0  0  0  0  0  0  0
   -1.5360    0.3001   -0.3636 C   0  0  1  0  0  0  0  0  0  0  0  0
   -1.1845   -0.3617   -1.6346 C   0  0  0  0  0  0  0  0  0  0  0  0
   -0.3355    0.7737   -1.1528 C   0  0  2  0  0  0  0  0  0  0  0  0
    1.0306    0.4984   -0.6419 C   0  0  0  0  0  0  0  0  0  0  0  0
    2.0419    1.4165   -0.8510 C   0  0  0  0  0  0  0  0  0  0  0  0
    3.3215    1.1373   -0.3632 C   0  0  0  0  0  0  0  0  0  0  0  0
    3.5899   -0.0287    0.3174 C   0  0  0  0  0  0  0  0  0  0  0  0
    4.9415   -0.2697    0.8037 C   0  0  0  0  0  0  0  0  0  0  0  0
    5.1097   -1.0134    1.9700 C   0  0  0  0  0  0  0  0  0  0  0  0
    6.3870   -1.2648    2.4662 C   0  0  0  0  0  0  0  0  0  0  0  0
    7.4962   -0.7747    1.7995 C   0  0  0  0  0  0  0  0  0  0  0  0
    7.3559   -0.0303    0.6345 C   0  0  0  0  0  0  0  0  0  0  0  0
    8.5504    0.4950   -0.0783 C   0  0  0  0  0  0  0  0  0  0  0  0
    8.9160   -0.3764   -1.1002 F   0  0  0  0  0  0  0  0  0  0  0  0
    8.2173    1.6906   -0.6874 F   0  0  0  0  0  0  0  0  0  0  0  0
    9.5921    0.7517    0.7798 F   0  0  0  0  0  0  0  0  0  0  0  0
    6.0616    0.1925    0.1812 C   0  0  0  0  0  0  0  0  0  0  0  0
    2.5601   -0.9240    0.5095 C   0  0  0  0  0  0  0  0  0  0  0  0
    1.2790   -0.6758    0.0375 C   0  0  0  0  0  0  0  0  0  0  0  0
   -4.3367   -0.5049    0.3095 C   0  0  0  0  0  0  0  0  0  0  0  0
   -5.4954   -1.1919   -0.3807 C   0  0  0  0  0  0  0  0  0  0  0  0
   -7.6024   -1.2693    0.6828 H   0  0  0  0  0  0  0  0  0  0  0  0
   -8.2609   -1.2672   -0.8929 H   0  0  0  0  0  0  0  0  0  0  0  0
   -6.7186    0.0267   -1.7324 H   0  0  0  0  0  0  0  0  0  0  0  0
   -7.0737    1.8553   -0.2284 H   0  0  0  0  0  0  0  0  0  0  0  0
   -6.3585    1.0279    1.1665 H   0  0  0  0  0  0  0  0  0  0  0  0
   -5.0741    2.3428   -1.2556 H   0  0  0  0  0  0  0  0  0  0  0  0
   -4.6684    2.4514    0.4755 H   0  0  0  0  0  0  0  0  0  0  0  0
   -3.9262    0.3464   -1.5963 H   0  0  0  0  0  0  0  0  0  0  0  0
   -2.5771    1.8594    0.5453 H   0  0  0  0  0  0  0  0  0  0  0  0
   -1.2641   -0.2307    0.5822 H   0  0  0  0  0  0  0  0  0  0  0  0
   -0.7139   -1.3844   -1.5531 H   0  0  0  0  0  0  0  0  0  0  0  0
   -1.7323   -0.2218   -2.5689 H   0  0  0  0  0  0  0  0  0  0  0  0
   -0.4687    1.7397   -1.6963 H   0  0  0  0  0  0  0  0  0  0  0  0
    1.8518    2.3409   -1.3842 H   0  0  0  0  0  0  0  0  0  0  0  0
    4.1164    1.8500   -0.5227 H   0  0  0  0  0  0  0  0  0  0  0  0
    4.2493   -1.3943    2.4890 H   0  0  0  0  0  0  0  0  0  0  0  0
    6.4858   -1.8452    3.3747 H   0  0  0  0  0  0  0  0  0  0  0  0
    8.4849   -0.9906    2.2152 H   0  0  0  0  0  0  0  0  0  0  0  0
    5.9288    0.7687   -0.7234 H   0  0  0  0  0  0  0  0  0  0  0  0
    2.7345   -1.8434    1.0360 H   0  0  0  0  0  0  0  0  0  0  0  0
    0.4568   -1.3650    0.1776 H   0  0  0  0  0  0  0  0  0  0  0  0
   -3.5114   -1.2142    0.5173 H   0  0  0  0  0  0  0  0  0  0  0  0
   -4.7176   -0.1935    1.3176 H   0  0  0  0  0  0  0  0  0  0  0  0
   -5.1513   -1.5754   -1.3858 H   0  0  0  0  0  0  0  0  0  0  0  0
   -5.8903   -2.0379    0.2193 H   0  0  0  0  0  0  0  0  0  0  0  0
  1  2  1  0
  2  3  1  0
  3  4  1  0
  4  5  1  0
  5  6  1  0
  6  7  1  0
  7  8  1  0
  8  9  1  0
  9 10  1  0
 10 11  2  0
 11 12  1  0
 12 13  2  0
 13 14  1  0
 14 15  2  0
 15 16  1  0
 16 17  2  0
 17 18  1  0
 18 19  1  0
 19 20  1  0
 19 21  1  0
 19 22  1  0
 18 23  2  0
 13 24  1  0
 24 25  2  0
  5 26  1  0
 26 27  1  0
 27  2  1  0
  9  7  1  0
 25 10  1  0
 23 14  1  0
  1 28  1  0
  1 29  1  0
  2 30  1  6
  3 31  1  0
  3 32  1  0
  4 33  1  0
  4 34  1  0
  5 35  1  6
  6 36  1  0
  7 37  1  1
  8 38  1  0
  8 39  1  0
  9 40  1  6
 11 41  1  0
 12 42  1  0
 15 43  1  0
 16 44  1  0
 17 45  1  0
 23 46  1  0
 24 47  1  0
 25 48  1  0
 26 49  1  0
 26 50  1  0
 27 51  1  0
 27 52  1  0
M  END
$$$$
