
     RDKit          3D

 89 90  0  0  0  0  0  0  0  0999 V2000
   -1.0429   -2.4980   -1.7440 C   0  0  1  0  0  0  0  0  0  0  0  0
   -1.2776   -2.8141   -3.2010 C   0  0  0  0  0  0  0  0  0  0  0  0
   -1.1861   -3.6632   -0.9393 N   0  0  0  0  0  0  0  0  0  0  0  0
   -2.1815   -4.4355   -0.7984 C   0  0  0  0  0  0  0  0  0  0  0  0
   -1.7290   -5.3848    0.1110 O   0  0  0  0  0  0  0  0  0  0  0  0
   -3.6029   -4.6306   -1.2744 C   0  0  0  0  0  0  0  0  0  0  0  0
   -4.5604   -4.0243   -0.2322 C   0  0  2  0  0  0  0  0  0  0  0  0
   -4.3285   -2.6497   -0.0849 N   0  0  0  0  0  0  0  0  0  0  0  0
   -4.6704   -1.8654    0.8049 C   0  0  0  0  0  0  0  0  0  0  0  0
   -5.4018   -2.1558    1.9309 O   0  0  0  0  0  0  0  0  0  0  0  0
   -4.1130   -0.5626    0.3825 C   0  0  0  0  0  0  0  0  0  0  0  0
   -2.9841   -0.2614    1.3630 C   0  0  2  0  0  0  0  0  0  0  0  0
   -2.1839    0.8262    0.9338 N   0  0  0  0  0  0  0  0  0  0  0  0
   -2.4219    2.0247    0.8827 C   0  0  0  0  0  0  0  0  0  0  0  0
   -3.6251    2.5812    1.2740 O   0  0  0  0  0  0  0  0  0  0  0  0
   -1.2373    2.7342    0.3460 C   0  0  2  0  0  0  0  0  0  0  0  0
   -1.4770    3.4664   -0.9290 C   0  0  0  0  0  0  0  0  0  0  0  0
   -2.5355    4.4794   -0.7101 C   0  0  0  0  0  0  0  0  0  0  0  0
   -3.8893    4.2088   -0.9443 C   0  0  0  0  0  0  0  0  0  0  0  0
   -4.8870    5.1455   -0.7392 C   0  0  0  0  0  0  0  0  0  0  0  0
   -4.5596    6.4019   -0.2868 C   0  0  0  0  0  0  0  0  0  0  0  0
   -3.2252    6.6704   -0.0555 C   0  0  0  0  0  0  0  0  0  0  0  0
   -2.2236    5.7469   -0.2557 C   0  0  0  0  0  0  0  0  0  0  0  0
   -0.0367    1.8862    0.2690 N   0  0  0  0  0  0  0  0  0  0  0  0
    1.0804    2.1666    1.1372 C   0  0  0  0  0  0  0  0  0  0  0  0
    0.5152    0.7705   -0.3973 C   0  0  0  0  0  0  0  0  0  0  0  0
   -0.5193    0.6987   -1.0648 O   0  0  0  0  0  0  0  0  0  0  0  0
    1.6250   -0.1771   -0.5860 C   0  0  2  0  0  0  0  0  0  0  0  0
    2.8254    0.4875   -1.2517 C   0  0  0  0  0  0  0  0  0  0  0  0
    3.9514   -0.5312   -1.4449 C   0  0  0  0  0  0  0  0  0  0  0  0
    4.4010   -1.1117   -0.1299 C   0  0  0  0  0  0  0  0  0  0  0  0
    4.8874   -0.0744    0.7270 N   0  0  0  0  0  0  0  0  0  0  0  0
    6.1262    0.5490    0.3272 C   0  0  0  0  0  0  0  0  0  0  0  0
    6.9967    0.0950   -0.5030 N   0  0  0  0  0  0  0  0  0  0  0  0
    6.4127    1.8145    0.9424 N   0  0  0  0  0  0  0  0  0  0  0  0
    7.8103    2.1498    1.0574 C   0  0  0  0  0  0  0  0  0  0  0  0
    8.2236    3.4883    0.7931 O   0  0  0  0  0  0  0  0  0  0  0  0
    8.7025    1.3494    1.3803 N   0  0  0  0  0  0  0  0  0  0  0  0
    8.6493   -0.0141    1.7144 C   0  0  0  0  0  0  0  0  0  0  0  0
    1.3032   -1.3294   -1.2659 N   0  0  0  0  0  0  0  0  0  0  0  0
    0.4134   -2.0830   -1.6390 C   0  0  0  0  0  0  0  0  0  0  0  0
    1.1606   -3.0517   -2.3075 O   0  0  0  0  0  0  0  0  0  0  0  0
   -2.1662   -1.4394    1.6698 C   0  0  0  0  0  0  0  0  0  0  0  0
   -1.6075   -2.6544    2.0122 O   0  0  0  0  0  0  0  0  0  0  0  0
   -0.9204   -1.3742    1.5352 O   0  0  0  0  0  0  0  0  0  0  0  0
   -4.3963   -4.7128    1.0695 C   0  0  0  0  0  0  0  0  0  0  0  0
   -4.1459   -4.8974    2.4148 O   0  0  0  0  0  0  0  0  0  0  0  0
   -4.6220   -5.9593    0.9023 O   0  0  0  0  0  0  0  0  0  0  0  0
   -1.7130   -1.6661   -1.4036 H   0  0  0  0  0  0  0  0  0  0  0  0
   -2.3150   -2.7708   -3.5268 H   0  0  0  0  0  0  0  0  0  0  0  0
   -0.6296   -2.2010   -3.8665 H   0  0  0  0  0  0  0  0  0  0  0  0
   -0.9035   -3.8660   -3.3680 H   0  0  0  0  0  0  0  0  0  0  0  0
   -1.2709   -5.1838    0.9896 H   0  0  0  0  0  0  0  0  0  0  0  0
   -3.7798   -4.1699   -2.2580 H   0  0  0  0  0  0  0  0  0  0  0  0
   -3.8463   -5.6964   -1.3423 H   0  0  0  0  0  0  0  0  0  0  0  0
   -5.5918   -4.2539   -0.6005 H   0  0  0  0  0  0  0  0  0  0  0  0
   -6.0309   -2.9685    1.8991 H   0  0  0  0  0  0  0  0  0  0  0  0
   -4.8905    0.2453    0.4342 H   0  0  0  0  0  0  0  0  0  0  0  0
   -3.6812   -0.5953   -0.6155 H   0  0  0  0  0  0  0  0  0  0  0  0
   -3.5450   -0.0310    2.3246 H   0  0  0  0  0  0  0  0  0  0  0  0
   -4.2976    2.0840    1.8651 H   0  0  0  0  0  0  0  0  0  0  0  0
   -0.9936    3.4866    1.1213 H   0  0  0  0  0  0  0  0  0  0  0  0
   -1.7672    2.8173   -1.7766 H   0  0  0  0  0  0  0  0  0  0  0  0
   -0.5512    4.0288   -1.1979 H   0  0  0  0  0  0  0  0  0  0  0  0
   -4.1938    3.2243   -1.3102 H   0  0  0  0  0  0  0  0  0  0  0  0
   -5.9203    4.8922   -0.9331 H   0  0  0  0  0  0  0  0  0  0  0  0
   -5.3101    7.1668   -0.1132 H   0  0  0  0  0  0  0  0  0  0  0  0
   -2.9352    7.6617    0.3052 H   0  0  0  0  0  0  0  0  0  0  0  0
   -1.1695    5.9816   -0.0654 H   0  0  0  0  0  0  0  0  0  0  0  0
    0.7707    2.9366    1.9316 H   0  0  0  0  0  0  0  0  0  0  0  0
    1.8860    2.7490    0.6002 H   0  0  0  0  0  0  0  0  0  0  0  0
    1.4470    1.3459    1.7498 H   0  0  0  0  0  0  0  0  0  0  0  0
    1.9696   -0.4757    0.4644 H   0  0  0  0  0  0  0  0  0  0  0  0
    3.2309    1.2138   -0.5483 H   0  0  0  0  0  0  0  0  0  0  0  0
    2.5490    0.8389   -2.2424 H   0  0  0  0  0  0  0  0  0  0  0  0
    3.6627   -1.3041   -2.1816 H   0  0  0  0  0  0  0  0  0  0  0  0
    4.8217   -0.0133   -1.8941 H   0  0  0  0  0  0  0  0  0  0  0  0
    5.1856   -1.8744   -0.3620 H   0  0  0  0  0  0  0  0  0  0  0  0
    3.5903   -1.6903    0.3806 H   0  0  0  0  0  0  0  0  0  0  0  0
    4.3913    0.2383    1.6006 H   0  0  0  0  0  0  0  0  0  0  0  0
    6.8592   -0.8119   -0.9729 H   0  0  0  0  0  0  0  0  0  0  0  0
    5.6903    2.4636    1.2902 H   0  0  0  0  0  0  0  0  0  0  0  0
    9.0056    3.8147    1.3113 H   0  0  0  0  0  0  0  0  0  0  0  0
    7.6470   -0.3999    2.0558 H   0  0  0  0  0  0  0  0  0  0  0  0
    9.2769   -0.1868    2.6683 H   0  0  0  0  0  0  0  0  0  0  0  0
    9.0721   -0.7321    0.9801 H   0  0  0  0  0  0  0  0  0  0  0  0
    2.1120   -3.2958   -2.2124 H   0  0  0  0  0  0  0  0  0  0  0  0
   -1.8935   -3.2139    2.8316 H   0  0  0  0  0  0  0  0  0  0  0  0
   -3.2644   -5.1739    2.7920 H   0  0  0  0  0  0  0  0  0  0  0  0
  1  2  1  0
  1  3  1  0
  3  4  2  3
  4  5  1  0
  4  6  1  0
  6  7  1  0
  7  8  1  0
  8  9  2  3
  9 10  1  0
  9 11  1  0
 11 12  1  0
 12 13  1  0
 13 14  2  3
 14 15  1  0
 14 16  1  0
 16 17  1  0
 17 18  1  0
 18 19  2  0
 19 20  1  0
 20 21  2  0
 21 22  1  0
 22 23  2  0
 16 24  1  0
 24 25  1  0
 24 26  1  0
 26 27  2  0
 26 28  1  0
 28 29  1  0
 29 30  1  0
 30 31  1  0
 31 32  1  0
 32 33  1  0
 33 34  2  3
 33 35  1  0
 35 36  1  0
 36 37  1  0
 36 38  2  3
 38 39  1  0
 28 40  1  0
 40 41  2  3
 41 42  1  0
 12 43  1  0
 43 44  1  0
 43 45  2  0
  7 46  1  0
 46 47  1  0
 46 48  2  0
 41  1  1  0
 23 18  1  0
  1 49  1  1
  2 50  1  0
  2 51  1  0
  2 52  1  0
  5 53  1  0
  6 54  1  0
  6 55  1  0
  7 56  1  6
 10 57  1  0
 11 58  1  0
 11 59  1  0
 12 60  1  1
 15 61  1  0
 16 62  1  1
 17 63  1  0
 17 64  1  0
 19 65  1  0
 20 66  1  0
 21 67  1  0
 22 68  1  0
 23 69  1  0
 25 70  1  0
 25 71  1  0
 25 72  1  0
 28 73  1  1
 29 74  1  0
 29 75  1  0
 30 76  1  0
 30 77  1  0
 31 78  1  0
 31 79  1  0
 32 80  1  0
 34 81  1  0
 35 82  1  0
 37 83  1  0
 39 84  1  0
 39 85  1  0
 39 86  1  0
 42 87  1  0
 44 88  1  0
 47 89  1  0
M  END
$$$$
