
     RDKit          3D

 49 52  0  0  0  0  0  0  0  0999 V2000
   -3.8242    0.8888    0.7005 C   0  0  1  0  0  0  0  0  0  0  0  0
   -2.5686    0.5771    1.4606 C   0  0  0  0  0  0  0  0  0  0  0  0
   -1.4457    0.2497    0.6093 N   0  0  0  0  0  0  0  0  0  0  0  0
   -0.1941    0.4825    1.0331 C   0  0  0  0  0  0  0  0  0  0  0  0
    0.9336    0.1972    0.2849 C   0  0  0  0  0  0  0  0  0  0  0  0
    2.2130    0.5049    0.8890 C   0  0  0  0  0  0  0  0  0  0  0  0
    2.2940    1.0160    2.0488 O   0  0  0  0  0  0  0  0  0  0  0  0
    3.4933    0.3065    0.3401 N   0  0  0  0  0  0  0  0  0  0  0  0
    4.6310    0.7061    1.1707 C   0  0  0  0  0  0  0  0  0  0  0  0
    5.9106    0.4417    0.4856 C   0  0  0  0  0  0  0  0  0  0  0  0
    6.6362   -0.6655    0.8945 C   0  0  0  0  0  0  0  0  0  0  0  0
    7.8341   -0.9917    0.3127 C   0  0  0  0  0  0  0  0  0  0  0  0
    8.2762   -0.1609   -0.6982 C   0  0  0  0  0  0  0  0  0  0  0  0
    9.4524   -0.4655   -1.2825 F   0  0  0  0  0  0  0  0  0  0  0  0
    7.5849    0.9532   -1.1372 C   0  0  0  0  0  0  0  0  0  0  0  0
    6.3927    1.2267   -0.5153 C   0  0  0  0  0  0  0  0  0  0  0  0
    5.6736    2.3136   -0.9114 F   0  0  0  0  0  0  0  0  0  0  0  0
    0.6603   -0.3523   -0.9469 C   0  0  0  0  0  0  0  0  0  0  0  0
    1.6520   -0.6280   -1.6630 O   0  0  0  0  0  0  0  0  0  0  0  0
   -0.6136   -0.6003   -1.4038 C   0  0  0  0  0  0  0  0  0  0  0  0
   -0.8028   -1.1574   -2.6597 O   0  0  0  0  0  0  0  0  0  0  0  0
   -1.6761   -0.2831   -0.5876 C   0  0  0  0  0  0  0  0  0  0  0  0
   -3.0341   -0.5598   -1.1030 C   0  0  0  0  0  0  0  0  0  0  0  0
   -3.3078   -1.0574   -2.2138 O   0  0  0  0  0  0  0  0  0  0  0  0
   -4.0785   -0.2134   -0.2242 N   0  0  0  0  0  0  0  0  0  0  0  0
   -5.3450   -0.8629   -0.1834 C   0  0  2  0  0  0  0  0  0  0  0  0
   -5.5593   -1.9253   -1.2009 C   0  0  0  0  0  0  0  0  0  0  0  0
   -6.4269    0.2004   -0.1784 C   0  0  0  0  0  0  0  0  0  0  0  0
   -6.0966    1.1928    0.9205 C   0  0  0  0  0  0  0  0  0  0  0  0
   -4.8980    0.9478    1.5518 O   0  0  0  0  0  0  0  0  0  0  0  0
   -3.6504    1.8303    0.1338 H   0  0  0  0  0  0  0  0  0  0  0  0
   -2.8150   -0.2763    2.1345 H   0  0  0  0  0  0  0  0  0  0  0  0
   -2.2872    1.4395    2.0782 H   0  0  0  0  0  0  0  0  0  0  0  0
   -0.0904    0.9237    2.0314 H   0  0  0  0  0  0  0  0  0  0  0  0
    3.5780   -0.0992   -0.5935 H   0  0  0  0  0  0  0  0  0  0  0  0
    4.5875    1.8053    1.3684 H   0  0  0  0  0  0  0  0  0  0  0  0
    4.5367    0.1173    2.1051 H   0  0  0  0  0  0  0  0  0  0  0  0
    6.2426   -1.2946    1.7011 H   0  0  0  0  0  0  0  0  0  0  0  0
    8.3840   -1.8601    0.6463 H   0  0  0  0  0  0  0  0  0  0  0  0
    7.9761    1.5616   -1.9250 H   0  0  0  0  0  0  0  0  0  0  0  0
   -1.0226   -2.1478   -2.7039 H   0  0  0  0  0  0  0  0  0  0  0  0
   -5.4040   -1.3713    0.8266 H   0  0  0  0  0  0  0  0  0  0  0  0
   -4.6938   -2.6139   -1.1670 H   0  0  0  0  0  0  0  0  0  0  0  0
   -5.8220   -1.5492   -2.1907 H   0  0  0  0  0  0  0  0  0  0  0  0
   -6.4177   -2.5567   -0.8228 H   0  0  0  0  0  0  0  0  0  0  0  0
   -7.4359   -0.2720   -0.0198 H   0  0  0  0  0  0  0  0  0  0  0  0
   -6.3661    0.7429   -1.1422 H   0  0  0  0  0  0  0  0  0  0  0  0
   -6.8923    1.0913    1.6917 H   0  0  0  0  0  0  0  0  0  0  0  0
   -6.1741    2.2480    0.5347 H   0  0  0  0  0  0  0  0  0  0  0  0
  1  2  1  0
  2  3  1  0
  3  4  1  0
  4  5  2  0
  5  6  1  0
  6  7  2  0
  6  8  1  0
  8  9  1  0
  9 10  1  0
 10 11  2  0
 11 12  1  0
 12 13  2  0
 13 14  1  0
 13 15  1  0
 15 16  2  0
 16 17  1  0
  5 18  1  0
 18 19  2  0
 18 20  1  0
 20 21  1  0
 20 22  2  0
 22 23  1  0
 23 24  2  0
 23 25  1  0
 25 26  1  0
 26 27  1  0
 26 28  1  0
 28 29  1  0
 29 30  1  0
 25  1  1  0
 30  1  1  0
 22  3  1  0
 16 10  1  0
  1 31  1  6
  2 32  1  0
  2 33  1  0
  4 34  1  0
  8 35  1  0
  9 36  1  0
  9 37  1  0
 11 38  1  0
 12 39  1  0
 15 40  1  0
 21 41  1  0
 26 42  1  1
 27 43  1  0
 27 44  1  0
 27 45  1  0
 28 46  1  0
 28 47  1  0
 29 48  1  0
 29 49  1  0
M  END
$$$$
