
     RDKit          3D

 30 32  0  0  0  0  0  0  0  0999 V2000
    1.3029   -2.8482    1.0699 O   0  0  0  0  0  0  0  0  0  0  0  0
    0.8854   -1.7330    0.6956 C   0  0  0  0  0  0  0  0  0  0  0  0
   -0.4907   -1.4797    0.5926 C   0  0  0  0  0  0  0  0  0  0  0  0
   -0.9729   -0.2631    0.1839 C   0  0  0  0  0  0  0  0  0  0  0  0
   -2.4029    0.0064    0.0748 C   0  0  0  0  0  0  0  0  0  0  0  0
   -2.8466    1.2663   -0.3477 C   0  0  0  0  0  0  0  0  0  0  0  0
   -4.1870    1.5540   -0.4616 C   0  0  0  0  0  0  0  0  0  0  0  0
   -5.1156    0.5816   -0.1534 C   0  0  0  0  0  0  0  0  0  0  0  0
   -4.7281   -0.6683    0.2649 C   0  0  0  0  0  0  0  0  0  0  0  0
   -3.3584   -0.9052    0.3624 C   0  0  0  0  0  0  0  0  0  0  0  0
   -0.0810    0.6686   -0.1113 O   0  0  0  0  0  0  0  0  0  0  0  0
    1.2142    0.4863   -0.0329 C   0  0  0  0  0  0  0  0  0  0  0  0
    2.1164    1.4990   -0.3547 C   0  0  0  0  0  0  0  0  0  0  0  0
    3.4751    1.2831   -0.2643 C   0  0  0  0  0  0  0  0  0  0  0  0
    4.3936    2.3019   -0.5879 O   0  0  0  0  0  0  0  0  0  0  0  0
    4.0025    0.0734    0.1428 C   0  0  0  0  0  0  0  0  0  0  0  0
    5.3679   -0.1496    0.2357 O   0  0  0  0  0  0  0  0  0  0  0  0
    3.1135   -0.9376    0.4642 C   0  0  0  0  0  0  0  0  0  0  0  0
    3.6559   -2.1495    0.8722 O   0  0  0  0  0  0  0  0  0  0  0  0
    1.7536   -0.7147    0.3714 C   0  0  0  0  0  0  0  0  0  0  0  0
   -1.1396   -2.2992    0.8541 H   0  0  0  0  0  0  0  0  0  0  0  0
   -2.1334    2.0241   -0.5880 H   0  0  0  0  0  0  0  0  0  0  0  0
   -4.5326    2.5407   -0.7924 H   0  0  0  0  0  0  0  0  0  0  0  0
   -6.1634    0.8564   -0.2589 H   0  0  0  0  0  0  0  0  0  0  0  0
   -5.4463   -1.4261    0.5051 H   0  0  0  0  0  0  0  0  0  0  0  0
   -3.0792   -1.9046    0.6965 H   0  0  0  0  0  0  0  0  0  0  0  0
    1.7668    2.4524   -0.6746 H   0  0  0  0  0  0  0  0  0  0  0  0
    4.3264    3.2240   -0.1647 H   0  0  0  0  0  0  0  0  0  0  0  0
    5.7893   -0.7735   -0.4384 H   0  0  0  0  0  0  0  0  0  0  0  0
    3.5143   -2.5657    1.7728 H   0  0  0  0  0  0  0  0  0  0  0  0
  1  2  2  0
  2  3  1  0
  3  4  2  0
  4  5  1  0
  5  6  2  0
  6  7  1  0
  7  8  2  0
  8  9  1  0
  9 10  2  0
  4 11  1  0
 11 12  1  0
 12 13  2  0
 13 14  1  0
 14 15  1  0
 14 16  2  0
 16 17  1  0
 16 18  1  0
 18 19  1  0
 18 20  2  0
 20  2  1  0
 10  5  1  0
 20 12  1  0
  3 21  1  0
  6 22  1  0
  7 23  1  0
  8 24  1  0
  9 25  1  0
 10 26  1  0
 13 27  1  0
 15 28  1  0
 17 29  1  0
 19 30  1  0
M  END
$$$$
