
     RDKit          3D

 37 39  0  0  0  0  0  0  0  0999 V2000
   -0.9447   -3.6793   -1.9788 C   0  0  0  0  0  0  0  0  0  0  0  0
   -1.5117   -2.2936   -2.0902 C   0  0  0  0  0  0  0  0  0  0  0  0
   -2.5541   -2.1705   -2.7852 O   0  0  0  0  0  0  0  0  0  0  0  0
   -0.8859   -1.2289   -1.4427 N   0  0  0  0  0  0  0  0  0  0  0  0
    0.2566   -1.2708   -0.6623 N   0  0  0  0  0  0  0  0  0  0  0  0
    0.8220   -0.1405   -0.5744 C   0  0  0  0  0  0  0  0  0  0  0  0
    2.0447    0.2204    0.1570 C   0  0  0  0  0  0  0  0  0  0  0  0
    2.5380    1.4899    0.1600 C   0  0  0  0  0  0  0  0  0  0  0  0
    3.6793    1.8688    0.8317 C   0  0  0  0  0  0  0  0  0  0  0  0
    4.3850    0.9329    1.5512 C   0  0  0  0  0  0  0  0  0  0  0  0
    5.5519    1.2618    2.2532 O   0  0  0  0  0  0  0  0  0  0  0  0
    3.8997   -0.3680    1.5617 C   0  0  0  0  0  0  0  0  0  0  0  0
    2.7499   -0.7315    0.8802 C   0  0  0  0  0  0  0  0  0  0  0  0
    0.0306    0.8274   -1.3729 C   0  0  0  0  0  0  0  0  0  0  0  0
   -1.3181    0.1591   -1.4605 C   0  0  0  0  0  0  0  0  0  0  0  0
   -2.1405    0.5228   -0.3287 C   0  0  0  0  0  0  0  0  0  0  0  0
   -2.1333    1.7728    0.2137 C   0  0  0  0  0  0  0  0  0  0  0  0
   -2.9003    2.1329    1.3081 C   0  0  0  0  0  0  0  0  0  0  0  0
   -3.7103    1.2168    1.8910 C   0  0  0  0  0  0  0  0  0  0  0  0
   -3.7589   -0.0581    1.3870 C   0  0  0  0  0  0  0  0  0  0  0  0
   -4.8242   -1.2100    2.1762 Cl  0  0  0  0  0  0  0  0  0  0  0  0
   -2.9914   -0.4068    0.2976 C   0  0  0  0  0  0  0  0  0  0  0  0
    0.1635   -3.5657   -1.9179 H   0  0  0  0  0  0  0  0  0  0  0  0
   -1.1487   -4.2864   -2.8662 H   0  0  0  0  0  0  0  0  0  0  0  0
   -1.3374   -4.1866   -1.0759 H   0  0  0  0  0  0  0  0  0  0  0  0
    1.9814    2.2403   -0.4107 H   0  0  0  0  0  0  0  0  0  0  0  0
    4.0420    2.8823    0.8131 H   0  0  0  0  0  0  0  0  0  0  0  0
    6.1269    2.0383    2.0238 H   0  0  0  0  0  0  0  0  0  0  0  0
    4.4749   -1.0937    2.1385 H   0  0  0  0  0  0  0  0  0  0  0  0
    2.3964   -1.7363    0.9028 H   0  0  0  0  0  0  0  0  0  0  0  0
    0.4920    0.8709   -2.3933 H   0  0  0  0  0  0  0  0  0  0  0  0
    0.0334    1.7960   -0.9005 H   0  0  0  0  0  0  0  0  0  0  0  0
   -1.8053    0.3285   -2.4386 H   0  0  0  0  0  0  0  0  0  0  0  0
   -1.5293    2.5865   -0.1905 H   0  0  0  0  0  0  0  0  0  0  0  0
   -2.8425    3.1514    1.6877 H   0  0  0  0  0  0  0  0  0  0  0  0
   -4.3116    1.5244    2.7601 H   0  0  0  0  0  0  0  0  0  0  0  0
   -3.0198   -1.3975   -0.1056 H   0  0  0  0  0  0  0  0  0  0  0  0
  1  2  1  0
  2  3  2  0
  2  4  1  0
  4  5  1  0
  5  6  2  0
  6  7  1  0
  7  8  2  0
  8  9  1  0
  9 10  2  0
 10 11  1  0
 10 12  1  0
 12 13  2  0
  6 14  1  0
 14 15  1  0
 15 16  1  0
 16 17  2  0
 17 18  1  0
 18 19  2  0
 19 20  1  0
 20 21  1  0
 20 22  2  0
 15  4  1  0
 22 16  1  0
 13  7  1  0
  1 23  1  0
  1 24  1  0
  1 25  1  0
  8 26  1  0
  9 27  1  0
 11 28  1  0
 12 29  1  0
 13 30  1  0
 14 31  1  0
 14 32  1  0
 15 33  1  0
 17 34  1  0
 18 35  1  0
 19 36  1  0
 22 37  1  0
M  END
$$$$
