
     RDKit          3D

 29 31  0  0  0  0  0  0  0  0999 V2000
    0.0397    0.3165   -1.8147 O   0  0  0  0  0  0  0  0  0  0  0  0
    0.5066    0.1295   -0.6841 C   0  0  0  0  0  0  0  0  0  0  0  0
   -0.1830   -0.0121    0.5499 N   0  0  0  0  0  0  0  0  0  0  0  0
   -1.6376    0.0478    0.6606 C   0  0  0  0  0  0  0  0  0  0  0  0
   -2.2760   -1.0756   -0.0617 C   0  0  0  0  0  0  0  0  0  0  0  0
   -3.0657   -0.7655   -1.2710 C   0  0  0  0  0  0  0  0  0  0  0  0
   -3.6766    0.5821   -1.3122 C   0  0  0  0  0  0  0  0  0  0  0  0
   -4.7425    0.7728   -1.9818 O   0  0  0  0  0  0  0  0  0  0  0  0
   -3.1210    1.7215   -0.6205 N   0  0  0  0  0  0  0  0  0  0  0  0
   -2.1554    1.3965    0.3647 C   0  0  0  0  0  0  0  0  0  0  0  0
   -1.6504    2.2964    1.0918 O   0  0  0  0  0  0  0  0  0  0  0  0
    0.8152   -0.2062    1.5381 C   0  0  0  0  0  0  0  0  0  0  0  0
    0.5343   -0.3674    2.7608 O   0  0  0  0  0  0  0  0  0  0  0  0
    2.1418   -0.1904    0.9480 C   0  0  0  0  0  0  0  0  0  0  0  0
    3.3725   -0.3415    1.5527 C   0  0  0  0  0  0  0  0  0  0  0  0
    4.4835   -0.2830    0.7434 C   0  0  0  0  0  0  0  0  0  0  0  0
    4.3503   -0.0799   -0.6202 C   0  0  0  0  0  0  0  0  0  0  0  0
    3.1074    0.0621   -1.1572 C   0  0  0  0  0  0  0  0  0  0  0  0
    1.9516    0.0130   -0.3975 C   0  0  0  0  0  0  0  0  0  0  0  0
   -1.8314   -0.1008    1.7632 H   0  0  0  0  0  0  0  0  0  0  0  0
   -2.9027   -1.7225    0.6205 H   0  0  0  0  0  0  0  0  0  0  0  0
   -1.4682   -1.7941   -0.3917 H   0  0  0  0  0  0  0  0  0  0  0  0
   -3.9050   -1.4937   -1.3861 H   0  0  0  0  0  0  0  0  0  0  0  0
   -2.4600   -0.8854   -2.2033 H   0  0  0  0  0  0  0  0  0  0  0  0
   -3.4033    2.7009   -0.8252 H   0  0  0  0  0  0  0  0  0  0  0  0
    3.4624   -0.4985    2.6114 H   0  0  0  0  0  0  0  0  0  0  0  0
    5.4333   -0.4014    1.2229 H   0  0  0  0  0  0  0  0  0  0  0  0
    5.2637   -0.0431   -1.2065 H   0  0  0  0  0  0  0  0  0  0  0  0
    3.0163    0.2220   -2.2361 H   0  0  0  0  0  0  0  0  0  0  0  0
  1  2  2  0
  2  3  1  0
  3  4  1  0
  4  5  1  0
  5  6  1  0
  6  7  1  0
  7  8  2  0
  7  9  1  0
  9 10  1  0
 10 11  2  0
  3 12  1  0
 12 13  2  0
 12 14  1  0
 14 15  2  0
 15 16  1  0
 16 17  2  0
 17 18  1  0
 18 19  2  0
 19  2  1  0
 10  4  1  0
 19 14  1  0
  4 20  1  0
  5 21  1  0
  5 22  1  0
  6 23  1  0
  6 24  1  0
  9 25  1  0
 15 26  1  0
 16 27  1  0
 17 28  1  0
 18 29  1  0
M  END
$$$$
