
     RDKit          3D

 29 31  0  0  0  0  0  0  0  0999 V2000
   -1.1379    3.8718    2.2048 Br  0  0  0  0  0  0  0  0  0  0  0  0
   -1.5818    2.3664    1.1294 C   0  0  0  0  0  0  0  0  0  0  0  0
   -0.5996    1.4087    0.9059 C   0  0  0  0  0  0  0  0  0  0  0  0
   -0.9420    0.3117    0.1137 C   0  0  0  0  0  0  0  0  0  0  0  0
   -2.2236    0.1657   -0.4401 C   0  0  0  0  0  0  0  0  0  0  0  0
   -2.6736   -0.9442   -1.2449 N   0  0  0  0  0  0  0  0  0  0  0  0
   -2.1237   -2.2642   -1.0982 C   0  0  0  0  0  0  0  0  0  0  0  0
   -2.7488   -3.0518   -1.8879 O   0  0  0  0  0  0  0  0  0  0  0  0
   -1.0295   -2.7413   -0.2210 C   0  0  0  0  0  0  0  0  0  0  0  0
    0.0906   -1.8475   -0.1657 N   0  0  0  0  0  0  0  0  0  0  0  0
    0.2123   -0.5722   -0.0301 C   0  0  0  0  0  0  0  0  0  0  0  0
    1.5362    0.0249   -0.0290 C   0  0  0  0  0  0  0  0  0  0  0  0
    2.5422   -0.9395   -0.1287 C   0  0  0  0  0  0  0  0  0  0  0  0
    3.8994   -0.7065   -0.1805 C   0  0  0  0  0  0  0  0  0  0  0  0
    4.3529    0.5929   -0.1319 C   0  0  0  0  0  0  0  0  0  0  0  0
    3.3598    1.5382   -0.0339 C   0  0  0  0  0  0  0  0  0  0  0  0
    2.0673    1.2343    0.0110 N   0  0  0  0  0  0  0  0  0  0  0  0
   -3.1970    1.1458   -0.1999 C   0  0  0  0  0  0  0  0  0  0  0  0
   -2.8566    2.2281    0.5807 C   0  0  0  0  0  0  0  0  0  0  0  0
    0.3818    1.4901    1.3362 H   0  0  0  0  0  0  0  0  0  0  0  0
   -3.4176   -0.6496   -1.9048 H   0  0  0  0  0  0  0  0  0  0  0  0
   -1.3868   -2.9589    0.8065 H   0  0  0  0  0  0  0  0  0  0  0  0
   -0.6761   -3.7061   -0.6416 H   0  0  0  0  0  0  0  0  0  0  0  0
    2.3557   -2.0271   -0.1783 H   0  0  0  0  0  0  0  0  0  0  0  0
    4.6590   -1.4690   -0.2570 H   0  0  0  0  0  0  0  0  0  0  0  0
    5.3683    0.9525   -0.1607 H   0  0  0  0  0  0  0  0  0  0  0  0
    3.5400    2.6235    0.0160 H   0  0  0  0  0  0  0  0  0  0  0  0
   -4.1554    0.9602   -0.6616 H   0  0  0  0  0  0  0  0  0  0  0  0
   -3.6154    2.9632    0.7500 H   0  0  0  0  0  0  0  0  0  0  0  0
  1  2  1  0
  2  3  2  0
  3  4  1  0
  4  5  2  0
  5  6  1  0
  6  7  1  0
  7  8  2  0
  7  9  1  0
  9 10  1  0
 10 11  2  0
 11 12  1  0
 12 13  2  0
 13 14  1  0
 14 15  2  0
 15 16  1  0
 16 17  2  0
  5 18  1  0
 18 19  2  0
 19  2  1  0
 11  4  1  0
 17 12  1  0
  3 20  1  0
  6 21  1  0
  9 22  1  0
  9 23  1  0
 13 24  1  0
 14 25  1  0
 15 26  1  0
 16 27  1  0
 18 28  1  0
 19 29  1  0
M  END
$$$$
