
     RDKit          3D

 39 41  0  0  0  0  0  0  0  0999 V2000
   -5.0862   -1.6292   -1.2559 C   0  0  0  0  0  0  0  0  0  0  0  0
   -4.0967   -0.6433   -0.7341 C   0  0  0  0  0  0  0  0  0  0  0  0
   -3.9843    0.5909   -1.6027 C   0  0  0  0  0  0  0  0  0  0  0  0
   -4.6055   -0.1570    0.6276 C   0  0  0  0  0  0  0  0  0  0  0  0
   -3.6640    0.9058    1.0662 C   0  0  0  0  0  0  0  0  0  0  0  0
   -4.0623    1.9466    1.6196 O   0  0  0  0  0  0  0  0  0  0  0  0
   -2.2388    0.7162    0.8383 C   0  0  0  0  0  0  0  0  0  0  0  0
   -1.2901    1.5762    1.3839 C   0  0  0  0  0  0  0  0  0  0  0  0
    0.0196    1.3264    1.1211 C   0  0  0  0  0  0  0  0  0  0  0  0
    0.4648    0.2618    0.3391 C   0  0  0  0  0  0  0  0  0  0  0  0
    1.8185    0.0588    0.1064 O   0  0  0  0  0  0  0  0  0  0  0  0
    2.7927    0.9289    0.6576 C   0  0  0  0  0  0  0  0  0  0  0  0
    4.1637    0.5325    0.2870 C   0  0  0  0  0  0  0  0  0  0  0  0
    4.8212    0.9832   -0.8386 C   0  0  0  0  0  0  0  0  0  0  0  0
    6.1151    0.5624   -1.1194 C   0  0  0  0  0  0  0  0  0  0  0  0
    6.7692   -0.3210   -0.2693 C   0  0  0  0  0  0  0  0  0  0  0  0
    8.4055   -0.8667   -0.6044 Cl  0  0  0  0  0  0  0  0  0  0  0  0
    6.1216   -0.7708    0.8481 C   0  0  0  0  0  0  0  0  0  0  0  0
    4.8431   -0.3433    1.1082 C   0  0  0  0  0  0  0  0  0  0  0  0
   -0.5104   -0.5591   -0.1772 C   0  0  0  0  0  0  0  0  0  0  0  0
   -1.8598   -0.3572    0.0544 C   0  0  0  0  0  0  0  0  0  0  0  0
   -2.8250   -1.2161   -0.4894 O   0  0  0  0  0  0  0  0  0  0  0  0
   -4.9736   -2.5771   -0.7060 H   0  0  0  0  0  0  0  0  0  0  0  0
   -5.0691   -1.7499   -2.3564 H   0  0  0  0  0  0  0  0  0  0  0  0
   -6.1095   -1.2442   -0.9980 H   0  0  0  0  0  0  0  0  0  0  0  0
   -3.0954    0.5386   -2.2679 H   0  0  0  0  0  0  0  0  0  0  0  0
   -3.8696    1.5230   -0.9910 H   0  0  0  0  0  0  0  0  0  0  0  0
   -4.9160    0.7524   -2.1971 H   0  0  0  0  0  0  0  0  0  0  0  0
   -4.6015   -1.0054    1.3172 H   0  0  0  0  0  0  0  0  0  0  0  0
   -5.6214    0.2933    0.5224 H   0  0  0  0  0  0  0  0  0  0  0  0
   -1.6541    2.3936    1.9859 H   0  0  0  0  0  0  0  0  0  0  0  0
    0.7645    1.9796    1.5340 H   0  0  0  0  0  0  0  0  0  0  0  0
    2.6122    1.9303    0.1672 H   0  0  0  0  0  0  0  0  0  0  0  0
    2.6792    1.0510    1.7547 H   0  0  0  0  0  0  0  0  0  0  0  0
    4.3245    1.6576   -1.4895 H   0  0  0  0  0  0  0  0  0  0  0  0
    6.6587    0.8977   -1.9948 H   0  0  0  0  0  0  0  0  0  0  0  0
    6.6025   -1.4575    1.5282 H   0  0  0  0  0  0  0  0  0  0  0  0
    4.3645   -0.7286    2.0122 H   0  0  0  0  0  0  0  0  0  0  0  0
   -0.2076   -1.3940   -0.7875 H   0  0  0  0  0  0  0  0  0  0  0  0
  1  2  1  0
  2  3  1  0
  2  4  1  0
  4  5  1  0
  5  6  2  0
  5  7  1  0
  7  8  2  0
  8  9  1  0
  9 10  2  0
 10 11  1  0
 11 12  1  0
 12 13  1  0
 13 14  2  0
 14 15  1  0
 15 16  2  0
 16 17  1  0
 16 18  1  0
 18 19  2  0
 10 20  1  0
 20 21  2  0
 21 22  1  0
 22  2  1  0
 21  7  1  0
 19 13  1  0
  1 23  1  0
  1 24  1  0
  1 25  1  0
  3 26  1  0
  3 27  1  0
  3 28  1  0
  4 29  1  0
  4 30  1  0
  8 31  1  0
  9 32  1  0
 12 33  1  0
 12 34  1  0
 14 35  1  0
 15 36  1  0
 18 37  1  0
 19 38  1  0
 20 39  1  0
M  END
$$$$
