
     RDKit          3D

 49 51  0  0  0  0  0  0  0  0999 V2000
   -1.7460    3.4435   -1.5053 C   0  0  0  0  0  0  0  0  0  0  0  0
   -2.1941    2.3925   -0.7063 O   0  0  0  0  0  0  0  0  0  0  0  0
   -1.4248    1.3942   -0.1654 C   0  0  0  0  0  0  0  0  0  0  0  0
   -0.0663    1.3373   -0.3745 C   0  0  0  0  0  0  0  0  0  0  0  0
    0.7131    0.3119    0.1836 C   0  0  0  0  0  0  0  0  0  0  0  0
    2.1508    0.2802   -0.0213 C   0  0  0  0  0  0  0  0  0  0  0  0
    2.9562    1.3570    0.3529 C   0  0  0  0  0  0  0  0  0  0  0  0
    4.2869    1.3287    0.2054 N   0  0  0  0  0  0  0  0  0  0  0  0
    5.1164    2.4754    0.6070 C   0  0  0  0  0  0  0  0  0  0  0  0
    4.8421    0.2333   -0.3157 C   0  0  0  0  0  0  0  0  0  0  0  0
    6.1106    0.2172   -0.4511 O   0  0  0  0  0  0  0  0  0  0  0  0
    4.1364   -0.8954   -0.7231 C   0  0  0  0  0  0  0  0  0  0  0  0
    4.7622   -1.9821   -1.2584 C   0  0  0  0  0  0  0  0  0  0  0  0
    4.0237   -3.0324   -1.6414 N   0  0  0  0  0  0  0  0  0  0  0  0
    2.6858   -3.0286   -1.5062 C   0  0  0  0  0  0  0  0  0  0  0  0
    2.0237   -1.9404   -0.9663 C   0  0  0  0  0  0  0  0  0  0  0  0
    2.7446   -0.8380   -0.5572 C   0  0  0  0  0  0  0  0  0  0  0  0
    0.0156   -0.6069    0.9390 C   0  0  0  0  0  0  0  0  0  0  0  0
   -1.3362   -0.5820    1.1683 C   0  0  0  0  0  0  0  0  0  0  0  0
   -1.9780   -1.5496    1.9466 O   0  0  0  0  0  0  0  0  0  0  0  0
   -1.1837   -2.5808    2.5064 C   0  0  0  0  0  0  0  0  0  0  0  0
   -2.0790    0.4347    0.6091 C   0  0  0  0  0  0  0  0  0  0  0  0
   -3.5312    0.4654    0.8531 C   0  0  0  0  0  0  0  0  0  0  0  0
   -4.3007    0.0220   -0.2822 N   0  0  0  0  0  0  0  0  0  0  0  0
   -5.7118    0.0872    0.0581 C   0  0  0  0  0  0  0  0  0  0  0  0
   -3.9781   -1.3714   -0.5307 C   0  0  0  0  0  0  0  0  0  0  0  0
   -0.6898    3.7415   -1.3173 H   0  0  0  0  0  0  0  0  0  0  0  0
   -1.8204    3.1326   -2.5696 H   0  0  0  0  0  0  0  0  0  0  0  0
   -2.3438    4.3729   -1.3921 H   0  0  0  0  0  0  0  0  0  0  0  0
    0.4514    2.0780   -0.9748 H   0  0  0  0  0  0  0  0  0  0  0  0
    2.4484    2.2042    0.7630 H   0  0  0  0  0  0  0  0  0  0  0  0
    4.8000    3.3885    0.0398 H   0  0  0  0  0  0  0  0  0  0  0  0
    6.1764    2.2977    0.3369 H   0  0  0  0  0  0  0  0  0  0  0  0
    5.0869    2.6295    1.7043 H   0  0  0  0  0  0  0  0  0  0  0  0
    5.8381   -1.9628   -1.3573 H   0  0  0  0  0  0  0  0  0  0  0  0
    2.1398   -3.9034   -1.8318 H   0  0  0  0  0  0  0  0  0  0  0  0
    0.9507   -1.9182   -0.8636 H   0  0  0  0  0  0  0  0  0  0  0  0
    0.5973   -1.4102    1.3958 H   0  0  0  0  0  0  0  0  0  0  0  0
   -1.8558   -3.1501    3.1907 H   0  0  0  0  0  0  0  0  0  0  0  0
   -0.3300   -2.1214    3.0671 H   0  0  0  0  0  0  0  0  0  0  0  0
   -0.7270   -3.2329    1.7439 H   0  0  0  0  0  0  0  0  0  0  0  0
   -3.7560   -0.1319    1.7576 H   0  0  0  0  0  0  0  0  0  0  0  0
   -3.8849    1.5082    1.1105 H   0  0  0  0  0  0  0  0  0  0  0  0
   -6.1744    0.8179   -0.6235 H   0  0  0  0  0  0  0  0  0  0  0  0
   -6.2191   -0.8913   -0.0435 H   0  0  0  0  0  0  0  0  0  0  0  0
   -5.8718    0.4271    1.1041 H   0  0  0  0  0  0  0  0  0  0  0  0
   -2.9152   -1.5393   -0.7535 H   0  0  0  0  0  0  0  0  0  0  0  0
   -4.6185   -1.6751   -1.4042 H   0  0  0  0  0  0  0  0  0  0  0  0
   -4.3206   -2.0346    0.3109 H   0  0  0  0  0  0  0  0  0  0  0  0
  1  2  1  0
  2  3  1  0
  3  4  2  0
  4  5  1  0
  5  6  1  0
  6  7  2  0
  7  8  1  0
  8  9  1  0
  8 10  1  0
 10 11  2  0
 10 12  1  0
 12 13  2  0
 13 14  1  0
 14 15  2  0
 15 16  1  0
 16 17  2  0
  5 18  2  0
 18 19  1  0
 19 20  1  0
 20 21  1  0
 19 22  2  0
 22 23  1  0
 23 24  1  0
 24 25  1  0
 24 26  1  0
 22  3  1  0
 17  6  1  0
 17 12  1  0
  1 27  1  0
  1 28  1  0
  1 29  1  0
  4 30  1  0
  7 31  1  0
  9 32  1  0
  9 33  1  0
  9 34  1  0
 13 35  1  0
 15 36  1  0
 16 37  1  0
 18 38  1  0
 21 39  1  0
 21 40  1  0
 21 41  1  0
 23 42  1  0
 23 43  1  0
 25 44  1  0
 25 45  1  0
 25 46  1  0
 26 47  1  0
 26 48  1  0
 26 49  1  0
M  END
$$$$
