
     RDKit          3D

 56 58  0  0  0  0  0  0  0  0999 V2000
    3.7690    1.3805    1.3280 N   0  0  0  0  0  0  0  0  0  0  0  0
    2.6195    0.6642    0.9728 C   0  0  0  0  0  0  0  0  0  0  0  0
    1.5056    1.1221    1.2526 O   0  0  0  0  0  0  0  0  0  0  0  0
    2.7168   -0.6358    0.2663 C   0  0  0  0  0  0  0  0  0  0  0  0
    3.9195   -1.1631   -0.0574 C   0  0  0  0  0  0  0  0  0  0  0  0
    5.1860   -0.5625    0.2259 O   0  0  0  0  0  0  0  0  0  0  0  0
    6.3346   -1.2522   -0.1827 C   0  0  0  0  0  0  0  0  0  0  0  0
    7.5770   -0.5445    0.1573 C   0  0  0  0  0  0  0  0  0  0  0  0
    7.9437    0.5445   -0.6101 C   0  0  0  0  0  0  0  0  0  0  0  0
    7.1711    0.9592   -1.6604 F   0  0  0  0  0  0  0  0  0  0  0  0
    9.0986    1.2638   -0.3590 C   0  0  0  0  0  0  0  0  0  0  0  0
    9.8746    0.8443    0.6986 C   0  0  0  0  0  0  0  0  0  0  0  0
   11.4717    1.8178    1.0668 Br  0  0  0  0  0  0  0  0  0  0  0  0
    9.5457   -0.2327    1.4857 C   0  0  0  0  0  0  0  0  0  0  0  0
    8.3778   -0.9366    1.2086 C   0  0  0  0  0  0  0  0  0  0  0  0
    7.9909   -2.0071    1.9408 F   0  0  0  0  0  0  0  0  0  0  0  0
    3.9356   -2.3543   -0.7015 N   0  0  0  0  0  0  0  0  0  0  0  0
    2.1514   -2.7524   -0.8592 S   0  0  0  0  0  0  0  0  0  0  0  0
    1.6116   -1.3225   -0.0694 C   0  0  0  0  0  0  0  0  0  0  0  0
    0.2115   -0.9473    0.1776 N   0  0  0  0  0  0  0  0  0  0  0  0
   -0.4664   -0.1805   -0.8092 C   0  0  0  0  0  0  0  0  0  0  0  0
    0.1838    0.1376   -1.8513 O   0  0  0  0  0  0  0  0  0  0  0  0
   -1.8020    0.2402   -0.6966 N   0  0  0  0  0  0  0  0  0  0  0  0
   -2.3751    1.0172   -1.7751 C   0  0  0  0  0  0  0  0  0  0  0  0
   -3.8072    1.3329   -1.4110 C   0  0  0  0  0  0  0  0  0  0  0  0
   -4.6540    0.0926   -1.2165 C   0  0  0  0  0  0  0  0  0  0  0  0
   -6.0442    0.4763   -0.8662 C   0  0  0  0  0  0  0  0  0  0  0  0
   -6.9702   -0.5530   -0.6485 N   0  0  0  0  0  0  0  0  0  0  0  0
   -8.2645    0.0782   -0.3287 C   0  0  0  0  0  0  0  0  0  0  0  0
   -8.1448    0.4223    1.1604 C   0  0  0  0  0  0  0  0  0  0  0  0
   -7.0074   -0.4458    1.6557 C   0  0  0  0  0  0  0  0  0  0  0  0
   -6.7899   -1.3669    0.5108 C   0  0  0  0  0  0  0  0  0  0  0  0
    3.8671    1.6922    2.3273 H   0  0  0  0  0  0  0  0  0  0  0  0
    4.5486    1.6398    0.6938 H   0  0  0  0  0  0  0  0  0  0  0  0
    6.3434   -1.4135   -1.3005 H   0  0  0  0  0  0  0  0  0  0  0  0
    6.3427   -2.3025    0.2298 H   0  0  0  0  0  0  0  0  0  0  0  0
    9.3793    2.1138   -0.9634 H   0  0  0  0  0  0  0  0  0  0  0  0
   10.1547   -0.5649    2.3182 H   0  0  0  0  0  0  0  0  0  0  0  0
   -0.2786   -1.2227    1.0326 H   0  0  0  0  0  0  0  0  0  0  0  0
   -2.3132   -0.0323    0.1691 H   0  0  0  0  0  0  0  0  0  0  0  0
   -1.8677    2.0162   -1.8691 H   0  0  0  0  0  0  0  0  0  0  0  0
   -2.3586    0.4753   -2.7428 H   0  0  0  0  0  0  0  0  0  0  0  0
   -3.7686    1.9549   -0.4911 H   0  0  0  0  0  0  0  0  0  0  0  0
   -4.2747    2.0028   -2.1909 H   0  0  0  0  0  0  0  0  0  0  0  0
   -4.1444   -0.5577   -0.5175 H   0  0  0  0  0  0  0  0  0  0  0  0
   -4.6356   -0.4353   -2.2160 H   0  0  0  0  0  0  0  0  0  0  0  0
   -5.9867    1.1522    0.0376 H   0  0  0  0  0  0  0  0  0  0  0  0
   -6.4302    1.1394   -1.6759 H   0  0  0  0  0  0  0  0  0  0  0  0
   -9.0997   -0.5935   -0.5251 H   0  0  0  0  0  0  0  0  0  0  0  0
   -8.3392    1.0454   -0.8628 H   0  0  0  0  0  0  0  0  0  0  0  0
   -9.0795    0.1437    1.6455 H   0  0  0  0  0  0  0  0  0  0  0  0
   -7.9360    1.5003    1.3081 H   0  0  0  0  0  0  0  0  0  0  0  0
   -7.3555   -0.9630    2.5835 H   0  0  0  0  0  0  0  0  0  0  0  0
   -6.1151    0.1384    1.9494 H   0  0  0  0  0  0  0  0  0  0  0  0
   -5.8790   -1.9575    0.5388 H   0  0  0  0  0  0  0  0  0  0  0  0
   -7.6438   -2.1084    0.5162 H   0  0  0  0  0  0  0  0  0  0  0  0
  1  2  1  0
  2  3  2  0
  2  4  1  0
  4  5  1  0
  5  6  1  0
  6  7  1  0
  7  8  1  0
  8  9  2  0
  9 10  1  0
  9 11  1  0
 11 12  2  0
 12 13  1  0
 12 14  1  0
 14 15  2  0
 15 16  1  0
  5 17  2  0
 17 18  1  0
 18 19  1  0
 19 20  1  0
 20 21  1  0
 21 22  2  0
 21 23  1  0
 23 24  1  0
 24 25  1  0
 25 26  1  0
 26 27  1  0
 27 28  1  0
 28 29  1  0
 29 30  1  0
 30 31  1  0
 31 32  1  0
 19  4  2  0
 32 28  1  0
 15  8  1  0
  1 33  1  0
  1 34  1  0
  7 35  1  0
  7 36  1  0
 11 37  1  0
 14 38  1  0
 20 39  1  0
 23 40  1  0
 24 41  1  0
 24 42  1  0
 25 43  1  0
 25 44  1  0
 26 45  1  0
 26 46  1  0
 27 47  1  0
 27 48  1  0
 29 49  1  0
 29 50  1  0
 30 51  1  0
 30 52  1  0
 31 53  1  0
 31 54  1  0
 32 55  1  0
 32 56  1  0
M  END
$$$$
