
     RDKit          3D

 46 48  0  0  0  0  0  0  0  0999 V2000
    3.1787   -1.0574    2.5250 C   0  0  0  0  0  0  0  0  0  0  0  0
    2.4574   -0.3801    1.5262 O   0  0  0  0  0  0  0  0  0  0  0  0
    2.6182   -0.7355    0.2010 C   0  0  0  0  0  0  0  0  0  0  0  0
    3.5032   -1.7676   -0.0951 C   0  0  0  0  0  0  0  0  0  0  0  0
    3.7014   -2.1624   -1.4000 C   0  0  0  0  0  0  0  0  0  0  0  0
    3.0274   -1.5397   -2.4101 C   0  0  0  0  0  0  0  0  0  0  0  0
    2.1538   -0.5176   -2.0921 C   0  0  0  0  0  0  0  0  0  0  0  0
    1.9312   -0.0981   -0.8088 C   0  0  0  0  0  0  0  0  0  0  0  0
    1.0114    0.9828   -0.5234 C   0  0  0  0  0  0  0  0  0  0  0  0
   -0.3172    0.6342    0.0359 C   0  0  0  0  0  0  0  0  0  0  0  0
   -1.0160    1.9590    0.2249 C   0  0  0  0  0  0  0  0  0  0  0  0
   -1.0633    2.5823    1.4410 C   0  0  0  0  0  0  0  0  0  0  0  0
   -1.6867    3.7878    1.6632 C   0  0  0  0  0  0  0  0  0  0  0  0
   -2.3018    4.4121    0.6089 C   0  0  0  0  0  0  0  0  0  0  0  0
   -2.2781    3.8220   -0.6270 C   0  0  0  0  0  0  0  0  0  0  0  0
   -1.6369    2.5935   -0.8300 C   0  0  0  0  0  0  0  0  0  0  0  0
   -1.1912   -0.1584   -0.7434 N   0  0  0  0  0  0  0  0  0  0  0  0
   -2.4368   -0.3017    0.0226 C   0  0  0  0  0  0  0  0  0  0  0  0
   -2.3376   -1.3835    1.0586 C   0  0  0  0  0  0  0  0  0  0  0  0
   -2.1277   -2.6924    0.4775 N   0  0  0  0  0  0  0  0  0  0  0  0
   -1.8909   -2.5043   -0.9307 C   0  0  0  0  0  0  0  0  0  0  0  0
   -0.7702   -1.4646   -1.1069 C   0  0  0  0  0  0  0  0  0  0  0  0
    2.8537   -0.7056    3.5457 H   0  0  0  0  0  0  0  0  0  0  0  0
    4.2841   -0.8938    2.4224 H   0  0  0  0  0  0  0  0  0  0  0  0
    3.0257   -2.1518    2.4258 H   0  0  0  0  0  0  0  0  0  0  0  0
    4.0447   -2.2742    0.6668 H   0  0  0  0  0  0  0  0  0  0  0  0
    4.3964   -2.9754   -1.6493 H   0  0  0  0  0  0  0  0  0  0  0  0
    3.1757   -1.8413   -3.4347 H   0  0  0  0  0  0  0  0  0  0  0  0
    1.6340   -0.0416   -2.9034 H   0  0  0  0  0  0  0  0  0  0  0  0
    0.8761    1.6348   -1.4454 H   0  0  0  0  0  0  0  0  0  0  0  0
    1.4446    1.7384    0.2082 H   0  0  0  0  0  0  0  0  0  0  0  0
   -0.2082    0.1926    1.0488 H   0  0  0  0  0  0  0  0  0  0  0  0
   -0.5679    2.0728    2.2742 H   0  0  0  0  0  0  0  0  0  0  0  0
   -1.6998    4.2468    2.6446 H   0  0  0  0  0  0  0  0  0  0  0  0
   -2.7962    5.3683    0.7839 H   0  0  0  0  0  0  0  0  0  0  0  0
   -2.7711    4.3357   -1.4414 H   0  0  0  0  0  0  0  0  0  0  0  0
   -1.6401    2.1609   -1.8188 H   0  0  0  0  0  0  0  0  0  0  0  0
   -2.6563    0.6473    0.5755 H   0  0  0  0  0  0  0  0  0  0  0  0
   -3.3037   -0.4899   -0.6254 H   0  0  0  0  0  0  0  0  0  0  0  0
   -1.6017   -1.1832    1.8412 H   0  0  0  0  0  0  0  0  0  0  0  0
   -3.3359   -1.4199    1.5629 H   0  0  0  0  0  0  0  0  0  0  0  0
   -2.9305   -3.3363    0.6079 H   0  0  0  0  0  0  0  0  0  0  0  0
   -1.4883   -3.4601   -1.3244 H   0  0  0  0  0  0  0  0  0  0  0  0
   -2.7830   -2.2559   -1.5011 H   0  0  0  0  0  0  0  0  0  0  0  0
   -0.5287   -1.5591   -2.2065 H   0  0  0  0  0  0  0  0  0  0  0  0
    0.0480   -1.8196   -0.4748 H   0  0  0  0  0  0  0  0  0  0  0  0
  1  2  1  0
  2  3  1  0
  3  4  2  0
  4  5  1  0
  5  6  2  0
  6  7  1  0
  7  8  2  0
  8  9  1  0
  9 10  1  0
 10 11  1  0
 11 12  2  0
 12 13  1  0
 13 14  2  0
 14 15  1  0
 15 16  2  0
 10 17  1  0
 17 18  1  0
 18 19  1  0
 19 20  1  0
 20 21  1  0
 21 22  1  0
  8  3  1  0
 16 11  1  0
 22 17  1  0
  1 23  1  0
  1 24  1  0
  1 25  1  0
  4 26  1  0
  5 27  1  0
  6 28  1  0
  7 29  1  0
  9 30  1  0
  9 31  1  0
 10 32  1  0
 12 33  1  0
 13 34  1  0
 14 35  1  0
 15 36  1  0
 16 37  1  0
 18 38  1  0
 18 39  1  0
 19 40  1  0
 19 41  1  0
 20 42  1  0
 21 43  1  0
 21 44  1  0
 22 45  1  0
 22 46  1  0
M  END
$$$$
