
     RDKit          3D

 67 72  0  0  0  0  0  0  0  0999 V2000
   -1.8369    3.9008    0.4174 C   0  0  0  0  0  0  0  0  0  0  0  0
   -0.7561    2.8935    0.2980 C   0  0  0  0  0  0  0  0  0  0  0  0
    0.5402    3.3527    0.2394 C   0  0  0  0  0  0  0  0  0  0  0  0
    1.6116    2.4679    0.1374 C   0  0  0  0  0  0  0  0  0  0  0  0
    1.4377    1.1134    0.0904 C   0  0  0  0  0  0  0  0  0  0  0  0
    2.4371    0.1250   -0.0110 N   0  0  0  0  0  0  0  0  0  0  0  0
    3.8082    0.3448   -0.0821 C   0  0  0  0  0  0  0  0  0  0  0  0
    4.2429    1.5520   -0.0554 O   0  0  0  0  0  0  0  0  0  0  0  0
    4.8014   -0.7381   -0.1873 C   0  0  0  0  0  0  0  0  0  0  0  0
    4.3825   -2.0321   -0.2236 C   0  0  0  0  0  0  0  0  0  0  0  0
    5.3733   -3.0188   -0.3236 C   0  0  0  0  0  0  0  0  0  0  0  0
    6.6728   -2.6963   -0.3805 N   0  0  0  0  0  0  0  0  0  0  0  0
    7.1221   -1.4174   -0.3465 C   0  0  0  0  0  0  0  0  0  0  0  0
    8.5145   -1.1437   -0.4108 N   0  0  0  0  0  0  0  0  0  0  0  0
    9.5594   -2.1249   -0.5186 C   0  0  0  0  0  0  0  0  0  0  0  0
   10.8327   -1.3825   -0.2000 C   0  0  0  0  0  0  0  0  0  0  0  0
   10.3911   -0.0499    0.3607 C   0  0  0  0  0  0  0  0  0  0  0  0
    9.0860    0.1848   -0.3762 C   0  0  0  0  0  0  0  0  0  0  0  0
    6.1533   -0.4532   -0.2488 C   0  0  0  0  0  0  0  0  0  0  0  0
    0.1100    0.6800    0.1518 C   0  0  0  0  0  0  0  0  0  0  0  0
   -0.9627    1.5528    0.2532 C   0  0  0  0  0  0  0  0  0  0  0  0
   -2.3425    1.0316    0.3029 C   0  0  0  0  0  0  0  0  0  0  0  0
   -3.3275    1.5310   -0.5137 C   0  0  0  0  0  0  0  0  0  0  0  0
   -4.6118    1.0444   -0.4558 C   0  0  0  0  0  0  0  0  0  0  0  0
   -4.9683    0.0376    0.4202 C   0  0  0  0  0  0  0  0  0  0  0  0
   -6.1360   -0.6369    0.7016 C   0  0  0  0  0  0  0  0  0  0  0  0
   -7.4502   -0.4195    0.0549 C   0  0  0  0  0  0  0  0  0  0  0  0
   -7.6325   -1.2956   -1.1622 C   0  0  0  0  0  0  0  0  0  0  0  0
   -8.8998   -0.8364   -1.8533 C   0  0  0  0  0  0  0  0  0  0  0  0
   -9.8570   -0.2774   -0.9173 N   0  0  0  0  0  0  0  0  0  0  0  0
   -9.8661   -0.9529    0.3526 C   0  0  0  0  0  0  0  0  0  0  0  0
   -8.5502   -0.7415    1.0451 C   0  0  0  0  0  0  0  0  0  0  0  0
   -5.7977   -1.5030    1.6670 N   0  0  0  0  0  0  0  0  0  0  0  0
   -4.5429   -1.3896    1.9676 O   0  0  0  0  0  0  0  0  0  0  0  0
   -3.9580   -0.4434    1.2266 C   0  0  0  0  0  0  0  0  0  0  0  0
   -2.6657    0.0302    1.1842 C   0  0  0  0  0  0  0  0  0  0  0  0
   -1.5105    4.7452    1.0781 H   0  0  0  0  0  0  0  0  0  0  0  0
   -2.0050    4.3413   -0.5851 H   0  0  0  0  0  0  0  0  0  0  0  0
   -2.7812    3.5295    0.8042 H   0  0  0  0  0  0  0  0  0  0  0  0
    0.7333    4.4099    0.2726 H   0  0  0  0  0  0  0  0  0  0  0  0
    2.5943    2.9102    0.0969 H   0  0  0  0  0  0  0  0  0  0  0  0
    2.1482   -0.9096   -0.0385 H   0  0  0  0  0  0  0  0  0  0  0  0
    3.3725   -2.3773   -0.1837 H   0  0  0  0  0  0  0  0  0  0  0  0
    5.0692   -4.0436   -0.3539 H   0  0  0  0  0  0  0  0  0  0  0  0
    9.4552   -2.9780    0.1610 H   0  0  0  0  0  0  0  0  0  0  0  0
    9.6149   -2.4268   -1.5864 H   0  0  0  0  0  0  0  0  0  0  0  0
   11.4434   -1.9115    0.5624 H   0  0  0  0  0  0  0  0  0  0  0  0
   11.4292   -1.1527   -1.1239 H   0  0  0  0  0  0  0  0  0  0  0  0
   10.1198   -0.1636    1.4363 H   0  0  0  0  0  0  0  0  0  0  0  0
   11.0827    0.7682    0.1661 H   0  0  0  0  0  0  0  0  0  0  0  0
    8.4067    0.8443    0.1864 H   0  0  0  0  0  0  0  0  0  0  0  0
    9.2552    0.5898   -1.4007 H   0  0  0  0  0  0  0  0  0  0  0  0
    6.4299    0.5769   -0.2170 H   0  0  0  0  0  0  0  0  0  0  0  0
   -0.0935   -0.3863    0.1188 H   0  0  0  0  0  0  0  0  0  0  0  0
   -3.0954    2.3276   -1.2315 H   0  0  0  0  0  0  0  0  0  0  0  0
   -5.4127    1.4252   -1.0945 H   0  0  0  0  0  0  0  0  0  0  0  0
   -7.5780    0.6203   -0.2487 H   0  0  0  0  0  0  0  0  0  0  0  0
   -7.7433   -2.3453   -0.8169 H   0  0  0  0  0  0  0  0  0  0  0  0
   -6.7971   -1.1606   -1.8734 H   0  0  0  0  0  0  0  0  0  0  0  0
   -9.3427   -1.6584   -2.4530 H   0  0  0  0  0  0  0  0  0  0  0  0
   -8.6180   -0.0128   -2.5415 H   0  0  0  0  0  0  0  0  0  0  0  0
   -9.6558    0.7423   -0.7283 H   0  0  0  0  0  0  0  0  0  0  0  0
  -10.0220   -2.0321    0.1629 H   0  0  0  0  0  0  0  0  0  0  0  0
  -10.6558   -0.5102    0.9673 H   0  0  0  0  0  0  0  0  0  0  0  0
   -8.2849   -1.6964    1.5611 H   0  0  0  0  0  0  0  0  0  0  0  0
   -8.5639    0.0364    1.8199 H   0  0  0  0  0  0  0  0  0  0  0  0
   -1.9091   -0.3915    1.8487 H   0  0  0  0  0  0  0  0  0  0  0  0
  1  2  1  0
  2  3  2  0
  3  4  1  0
  4  5  2  0
  5  6  1  0
  6  7  1  0
  7  8  2  0
  7  9  1  0
  9 10  2  0
 10 11  1  0
 11 12  2  0
 12 13  1  0
 13 14  1  0
 14 15  1  0
 15 16  1  0
 16 17  1  0
 17 18  1  0
 13 19  2  0
  5 20  1  0
 20 21  2  0
 21 22  1  0
 22 23  2  0
 23 24  1  0
 24 25  2  0
 25 26  1  0
 26 27  1  0
 27 28  1  0
 28 29  1  0
 29 30  1  0
 30 31  1  0
 31 32  1  0
 26 33  2  0
 33 34  1  0
 34 35  1  0
 35 36  2  0
 21  2  1  0
 36 22  1  0
 19  9  1  0
 35 25  1  0
 18 14  1  0
 32 27  1  0
  1 37  1  0
  1 38  1  0
  1 39  1  0
  3 40  1  0
  4 41  1  0
  6 42  1  0
 10 43  1  0
 11 44  1  0
 15 45  1  0
 15 46  1  0
 16 47  1  0
 16 48  1  0
 17 49  1  0
 17 50  1  0
 18 51  1  0
 18 52  1  0
 19 53  1  0
 20 54  1  0
 23 55  1  0
 24 56  1  0
 27 57  1  0
 28 58  1  0
 28 59  1  0
 29 60  1  0
 29 61  1  0
 30 62  1  0
 31 63  1  0
 31 64  1  0
 32 65  1  0
 32 66  1  0
 36 67  1  0
M  END
$$$$
