
     RDKit          3D

 69 72  0  0  0  0  0  0  0  0999 V2000
    8.7262   -1.7239    2.3402 C   0  0  0  0  0  0  0  0  0  0  0  0
    8.4605   -0.8648    1.0574 C   0  0  0  0  0  0  0  0  0  0  0  0
    8.7581    0.4103    1.2665 O   0  0  0  0  0  0  0  0  0  0  0  0
    8.2950    1.6358    1.3425 C   0  0  0  0  0  0  0  0  0  0  0  0
    9.1681    2.7151    1.6154 C   0  0  0  0  0  0  0  0  0  0  0  0
    8.7643    4.0022    1.7088 C   0  0  0  0  0  0  0  0  0  0  0  0
    7.4377    4.3268    1.5357 C   0  0  0  0  0  0  0  0  0  0  0  0
    6.5438    3.3185    1.2684 C   0  0  0  0  0  0  0  0  0  0  0  0
    5.2666    3.3746    1.0708 O   0  0  0  0  0  0  0  0  0  0  0  0
    4.7482    2.2086    0.8447 C   0  0  0  0  0  0  0  0  0  0  0  0
    3.3706    1.8184    0.5766 C   0  0  0  0  0  0  0  0  0  0  0  0
    2.4338    2.6634    0.5361 O   0  0  0  0  0  0  0  0  0  0  0  0
    2.9926    0.4680    0.3444 N   0  0  0  0  0  0  0  0  0  0  0  0
    1.6585    0.0649    0.0825 C   0  0  0  0  0  0  0  0  0  0  0  0
    0.8710   -0.2758    1.1622 C   0  0  0  0  0  0  0  0  0  0  0  0
   -0.4535   -0.6813    0.9492 C   0  0  0  0  0  0  0  0  0  0  0  0
   -0.9658   -0.7395   -0.3298 C   0  0  0  0  0  0  0  0  0  0  0  0
   -2.3328   -1.1573   -0.6049 C   0  0  0  0  0  0  0  0  0  0  0  0
   -2.9354   -2.1014    0.2289 C   0  0  0  0  0  0  0  0  0  0  0  0
   -4.2243   -2.5043   -0.0207 C   0  0  0  0  0  0  0  0  0  0  0  0
   -4.9792   -2.0198   -1.0730 C   0  0  0  0  0  0  0  0  0  0  0  0
   -6.5976   -2.6241   -1.2658 S   0  0  0  0  0  6  0  0  0  0  0  0
   -6.9914   -2.7436   -2.7065 O   0  0  0  0  0  0  0  0  0  0  0  0
   -6.6478   -4.0168   -0.6956 O   0  0  0  0  0  0  0  0  0  0  0  0
   -7.6553   -1.6509   -0.3602 N   0  0  0  0  0  0  0  0  0  0  0  0
   -7.7069   -0.2719   -0.7530 C   0  0  2  0  0  0  0  0  0  0  0  0
   -7.1928    0.6051    0.3193 C   0  0  0  0  0  0  0  0  0  0  0  0
   -7.1487    1.8522    0.1874 O   0  0  0  0  0  0  0  0  0  0  0  0
   -6.7410    0.0671    1.5126 O   0  0  0  0  0  0  0  0  0  0  0  0
   -9.0628    0.1790   -1.1932 C   0  0  0  0  0  0  0  0  0  0  0  0
   -9.5792   -0.5947   -2.3783 C   0  0  0  0  0  0  0  0  0  0  0  0
   -8.9768    1.6374   -1.5939 C   0  0  0  0  0  0  0  0  0  0  0  0
   -4.3891   -1.0960   -1.8886 C   0  0  0  0  0  0  0  0  0  0  0  0
   -3.0864   -0.6797   -1.6478 C   0  0  0  0  0  0  0  0  0  0  0  0
   -0.1634   -0.3953   -1.3920 C   0  0  0  0  0  0  0  0  0  0  0  0
    1.1599    0.0119   -1.2023 C   0  0  0  0  0  0  0  0  0  0  0  0
    5.8029    1.2960    0.9015 C   0  0  0  0  0  0  0  0  0  0  0  0
    6.9573    2.0039    1.1731 C   0  0  0  0  0  0  0  0  0  0  0  0
    9.2763   -1.5002   -0.0517 C   0  0  0  0  0  0  0  0  0  0  0  0
   10.1085   -0.8072   -0.6421 O   0  0  0  0  0  0  0  0  0  0  0  0
    9.0668   -2.8142   -0.3630 O   0  0  0  0  0  0  0  0  0  0  0  0
    8.0934   -1.2643    3.1053 H   0  0  0  0  0  0  0  0  0  0  0  0
    8.4499   -2.7598    2.1070 H   0  0  0  0  0  0  0  0  0  0  0  0
    9.7748   -1.5992    2.6544 H   0  0  0  0  0  0  0  0  0  0  0  0
    7.4111   -1.1537    0.8141 H   0  0  0  0  0  0  0  0  0  0  0  0
   10.2039    2.4591    1.7502 H   0  0  0  0  0  0  0  0  0  0  0  0
    9.4684    4.8213    1.9223 H   0  0  0  0  0  0  0  0  0  0  0  0
    7.1447    5.3574    1.6152 H   0  0  0  0  0  0  0  0  0  0  0  0
    3.7613   -0.2624    0.3722 H   0  0  0  0  0  0  0  0  0  0  0  0
    1.1979   -0.2556    2.1816 H   0  0  0  0  0  0  0  0  0  0  0  0
   -1.0841   -0.9509    1.7753 H   0  0  0  0  0  0  0  0  0  0  0  0
   -2.3420   -2.4895    1.0648 H   0  0  0  0  0  0  0  0  0  0  0  0
   -4.6809   -3.2509    0.6508 H   0  0  0  0  0  0  0  0  0  0  0  0
   -8.5893   -2.0970   -0.2483 H   0  0  0  0  0  0  0  0  0  0  0  0
   -7.0106   -0.1449   -1.6125 H   0  0  0  0  0  0  0  0  0  0  0  0
   -6.8967    0.5349    2.4024 H   0  0  0  0  0  0  0  0  0  0  0  0
   -9.8289    0.1157   -0.4000 H   0  0  0  0  0  0  0  0  0  0  0  0
   -9.5983   -1.6672   -2.0818 H   0  0  0  0  0  0  0  0  0  0  0  0
   -8.8848   -0.5428   -3.2503 H   0  0  0  0  0  0  0  0  0  0  0  0
  -10.6103   -0.3220   -2.6492 H   0  0  0  0  0  0  0  0  0  0  0  0
   -7.9862    1.8516   -2.0027 H   0  0  0  0  0  0  0  0  0  0  0  0
   -9.7906    1.8180   -2.3544 H   0  0  0  0  0  0  0  0  0  0  0  0
   -9.2598    2.3071   -0.7367 H   0  0  0  0  0  0  0  0  0  0  0  0
   -4.9610   -0.7021   -2.7209 H   0  0  0  0  0  0  0  0  0  0  0  0
   -2.6291    0.0621   -2.3123 H   0  0  0  0  0  0  0  0  0  0  0  0
   -0.5831   -0.4475   -2.3834 H   0  0  0  0  0  0  0  0  0  0  0  0
    1.7800    0.2802   -2.0481 H   0  0  0  0  0  0  0  0  0  0  0  0
    5.7332    0.2445    0.7619 H   0  0  0  0  0  0  0  0  0  0  0  0
    9.6807   -3.3386   -0.9648 H   0  0  0  0  0  0  0  0  0  0  0  0
  1  2  1  0
  2  3  1  0
  3  4  1  0
  4  5  2  0
  5  6  1  0
  6  7  2  0
  7  8  1  0
  8  9  1  0
  9 10  1  0
 10 11  1  0
 11 12  2  0
 11 13  1  0
 13 14  1  0
 14 15  2  0
 15 16  1  0
 16 17  2  0
 17 18  1  0
 18 19  2  0
 19 20  1  0
 20 21  2  0
 21 22  1  0
 22 23  2  0
 22 24  2  0
 22 25  1  0
 25 26  1  0
 26 27  1  0
 27 28  2  0
 27 29  1  0
 26 30  1  0
 30 31  1  0
 30 32  1  0
 21 33  1  0
 33 34  2  0
 17 35  1  0
 35 36  2  0
 10 37  2  0
 37 38  1  0
  2 39  1  0
 39 40  2  0
 39 41  1  0
 38  4  1  0
 38  8  2  0
 36 14  1  0
 34 18  1  0
  1 42  1  0
  1 43  1  0
  1 44  1  0
  2 45  1  0
  5 46  1  0
  6 47  1  0
  7 48  1  0
 13 49  1  0
 15 50  1  0
 16 51  1  0
 19 52  1  0
 20 53  1  0
 25 54  1  0
 26 55  1  6
 29 56  1  0
 30 57  1  0
 31 58  1  0
 31 59  1  0
 31 60  1  0
 32 61  1  0
 32 62  1  0
 32 63  1  0
 33 64  1  0
 34 65  1  0
 35 66  1  0
 36 67  1  0
 37 68  1  0
 41 69  1  0
M  END
$$$$
