
     RDKit          3D

 27 30  0  0  0  0  0  0  0  0999 V2000
   -0.1943   -3.5807    0.3182 O   0  0  0  0  0  0  0  0  0  0  0  0
    0.2353   -2.4060    0.3187 C   0  0  0  0  0  0  0  0  0  0  0  0
    1.6331   -1.9920    0.4217 C   0  0  0  0  0  0  0  0  0  0  0  0
    2.8251   -2.7157    0.5414 C   0  0  0  0  0  0  0  0  0  0  0  0
    2.7203   -4.4679    0.5848 Cl  0  0  0  0  0  0  0  0  0  0  0  0
    4.0219   -2.0454    0.6202 C   0  0  0  0  0  0  0  0  0  0  0  0
    4.0591   -0.6733    0.5825 C   0  0  0  0  0  0  0  0  0  0  0  0
    2.8848    0.0369    0.4647 C   0  0  0  0  0  0  0  0  0  0  0  0
    1.6614   -0.6140    0.3831 C   0  0  0  0  0  0  0  0  0  0  0  0
    0.3373   -0.0998    0.2587 N   0  0  0  0  0  0  0  0  0  0  0  0
   -0.5106   -1.1413    0.2197 C   0  0  0  0  0  0  0  0  0  0  0  0
   -1.8519   -0.9526    0.1035 N   0  0  0  0  0  0  0  0  0  0  0  0
   -2.3429    0.3022    0.0258 C   0  0  0  0  0  0  0  0  0  0  0  0
   -3.6855    0.5682   -0.0928 C   0  0  0  0  0  0  0  0  0  0  0  0
   -4.1358    1.8683   -0.1684 C   0  0  0  0  0  0  0  0  0  0  0  0
   -3.2842    2.9516   -0.1304 C   0  0  0  0  0  0  0  0  0  0  0  0
   -1.9356    2.6699   -0.0108 C   0  0  0  0  0  0  0  0  0  0  0  0
   -1.4617    1.3620    0.0670 C   0  0  0  0  0  0  0  0  0  0  0  0
   -0.0998    1.1810    0.1847 C   0  0  0  0  0  0  0  0  0  0  0  0
    0.7018    2.1652    0.2216 O   0  0  0  0  0  0  0  0  0  0  0  0
    4.9405   -2.6039    0.7125 H   0  0  0  0  0  0  0  0  0  0  0  0
    5.0330   -0.1637    0.6477 H   0  0  0  0  0  0  0  0  0  0  0  0
    2.9042    1.1014    0.4347 H   0  0  0  0  0  0  0  0  0  0  0  0
   -4.3714   -0.2852   -0.1240 H   0  0  0  0  0  0  0  0  0  0  0  0
   -5.1921    2.0715   -0.2616 H   0  0  0  0  0  0  0  0  0  0  0  0
   -3.6732    3.9653   -0.1925 H   0  0  0  0  0  0  0  0  0  0  0  0
   -1.2186    3.4980    0.0237 H   0  0  0  0  0  0  0  0  0  0  0  0
  1  2  2  0
  2  3  1  0
  3  4  2  0
  4  5  1  0
  4  6  1  0
  6  7  2  0
  7  8  1  0
  8  9  2  0
  9 10  1  0
 10 11  1  0
 11 12  2  0
 12 13  1  0
 13 14  2  0
 14 15  1  0
 15 16  2  0
 16 17  1  0
 17 18  2  0
 18 19  1  0
 19 20  2  0
 11  2  1  0
 18 13  1  0
  9  3  1  0
 19 10  1  0
  6 21  1  0
  7 22  1  0
  8 23  1  0
 14 24  1  0
 15 25  1  0
 16 26  1  0
 17 27  1  0
M  END
$$$$
