
     RDKit          3D

 61 64  0  0  0  0  0  0  0  0999 V2000
    7.0523   -0.4776    1.9953 C   0  0  0  0  0  0  0  0  0  0  0  0
    6.7561   -0.9533    0.5992 C   0  0  0  0  0  0  0  0  0  0  0  0
    5.3786   -1.5237    0.5437 C   0  0  0  0  0  0  0  0  0  0  0  0
    7.6366   -2.0791    0.3981 O   0  0  0  0  0  0  0  0  0  0  0  0
    7.0182    0.0506   -0.4494 C   0  0  0  0  0  0  0  0  0  0  0  0
    6.3310    1.3454   -0.4284 C   0  0  0  0  0  0  0  0  0  0  0  0
    4.8664    1.2988   -0.5134 C   0  0  0  0  0  0  0  0  0  0  0  0
    4.0978    1.3319    0.6208 C   0  0  0  0  0  0  0  0  0  0  0  0
    2.7179    1.2888    0.4947 C   0  0  0  0  0  0  0  0  0  0  0  0
    2.0790    1.2141   -0.7253 C   0  0  0  0  0  0  0  0  0  0  0  0
    0.6968    1.1715   -0.8412 O   0  0  0  0  0  0  0  0  0  0  0  0
   -0.0608    1.2072    0.3468 C   0  0  0  0  0  0  0  0  0  0  0  0
   -1.5203    1.1553    0.0769 C   0  0  0  0  0  0  0  0  0  0  0  0
   -2.1731   -0.0559    0.0063 C   0  0  0  0  0  0  0  0  0  0  0  0
   -3.5292   -0.0987   -0.2447 C   0  0  0  0  0  0  0  0  0  0  0  0
   -4.2818   -1.3303   -0.3309 C   0  0  0  0  0  0  0  0  0  0  0  0
   -3.7789   -2.3743   -1.0684 C   0  0  0  0  0  0  0  0  0  0  0  0
   -4.4904   -3.5775   -1.1639 C   0  0  0  0  0  0  0  0  0  0  0  0
   -5.6965   -3.7470   -0.5311 C   0  0  0  0  0  0  0  0  0  0  0  0
   -6.2022   -2.6843    0.2160 C   0  0  0  0  0  0  0  0  0  0  0  0
   -7.4066   -2.8960    0.8299 O   0  0  0  0  0  0  0  0  0  0  0  0
   -8.0950   -1.9742    1.6238 C   0  0  0  0  0  0  0  0  0  0  0  0
   -8.3023   -2.4904    2.8977 F   0  0  0  0  0  0  0  0  0  0  0  0
   -9.3519   -1.6699    1.0831 F   0  0  0  0  0  0  0  0  0  0  0  0
   -5.4943   -1.5068    0.3027 C   0  0  0  0  0  0  0  0  0  0  0  0
   -4.2071    1.1124   -0.4223 C   0  0  0  0  0  0  0  0  0  0  0  0
   -5.5486    1.0999   -0.6730 N   0  0  0  0  0  0  0  0  0  0  0  0
   -6.2402    2.2359   -0.8510 C   0  0  0  0  0  0  0  0  0  0  0  0
   -5.6104    3.4603   -0.7852 C   0  0  0  0  0  0  0  0  0  0  0  0
   -4.2559    3.5295   -0.5345 C   0  0  0  0  0  0  0  0  0  0  0  0
   -3.5852    2.3382   -0.3581 C   0  0  0  0  0  0  0  0  0  0  0  0
   -2.2151    2.3320   -0.1024 C   0  0  0  0  0  0  0  0  0  0  0  0
    2.9025    1.1831   -1.8500 C   0  0  0  0  0  0  0  0  0  0  0  0
    4.2703    1.2234   -1.7726 C   0  0  0  0  0  0  0  0  0  0  0  0
    7.8615    0.2680    2.0496 H   0  0  0  0  0  0  0  0  0  0  0  0
    6.1162   -0.1321    2.4914 H   0  0  0  0  0  0  0  0  0  0  0  0
    7.3744   -1.3554    2.5918 H   0  0  0  0  0  0  0  0  0  0  0  0
    4.7902   -1.2776    1.4709 H   0  0  0  0  0  0  0  0  0  0  0  0
    5.4527   -2.6597    0.4989 H   0  0  0  0  0  0  0  0  0  0  0  0
    4.8689   -1.2227   -0.3811 H   0  0  0  0  0  0  0  0  0  0  0  0
    8.4122   -1.7949   -0.1327 H   0  0  0  0  0  0  0  0  0  0  0  0
    6.8773   -0.4178   -1.4768 H   0  0  0  0  0  0  0  0  0  0  0  0
    8.1334    0.2598   -0.4374 H   0  0  0  0  0  0  0  0  0  0  0  0
    6.6537    1.9978   -1.3061 H   0  0  0  0  0  0  0  0  0  0  0  0
    6.5964    1.9902    0.4491 H   0  0  0  0  0  0  0  0  0  0  0  0
    4.5154    1.3923    1.6080 H   0  0  0  0  0  0  0  0  0  0  0  0
    2.0900    1.3137    1.3778 H   0  0  0  0  0  0  0  0  0  0  0  0
    0.2166    0.3901    1.0575 H   0  0  0  0  0  0  0  0  0  0  0  0
    0.2283    2.1558    0.8773 H   0  0  0  0  0  0  0  0  0  0  0  0
   -1.6661   -1.0104    0.1412 H   0  0  0  0  0  0  0  0  0  0  0  0
   -2.8313   -2.3085   -1.5942 H   0  0  0  0  0  0  0  0  0  0  0  0
   -4.1054   -4.4148   -1.7446 H   0  0  0  0  0  0  0  0  0  0  0  0
   -6.2469   -4.6894   -0.6100 H   0  0  0  0  0  0  0  0  0  0  0  0
   -7.6057   -0.9932    1.7543 H   0  0  0  0  0  0  0  0  0  0  0  0
   -5.8591   -0.6694    0.8736 H   0  0  0  0  0  0  0  0  0  0  0  0
   -7.2980    2.1980   -1.0475 H   0  0  0  0  0  0  0  0  0  0  0  0
   -6.2018    4.3729   -0.9348 H   0  0  0  0  0  0  0  0  0  0  0  0
   -3.7622    4.4858   -0.4828 H   0  0  0  0  0  0  0  0  0  0  0  0
   -1.6965    3.2710   -0.0453 H   0  0  0  0  0  0  0  0  0  0  0  0
    2.4088    1.1248   -2.8040 H   0  0  0  0  0  0  0  0  0  0  0  0
    4.9193    1.2002   -2.6334 H   0  0  0  0  0  0  0  0  0  0  0  0
  1  2  1  0
  2  3  1  0
  2  4  1  0
  2  5  1  0
  5  6  1  0
  6  7  1  0
  7  8  2  0
  8  9  1  0
  9 10  2  0
 10 11  1  0
 11 12  1  0
 12 13  1  0
 13 14  2  0
 14 15  1  0
 15 16  1  0
 16 17  2  0
 17 18  1  0
 18 19  2  0
 19 20  1  0
 20 21  1  0
 21 22  1  0
 22 23  1  0
 22 24  1  0
 20 25  2  0
 15 26  2  0
 26 27  1  0
 27 28  2  0
 28 29  1  0
 29 30  2  0
 30 31  1  0
 31 32  2  0
 10 33  1  0
 33 34  2  0
 34  7  1  0
 32 13  1  0
 25 16  1  0
 31 26  1  0
  1 35  1  0
  1 36  1  0
  1 37  1  0
  3 38  1  0
  3 39  1  0
  3 40  1  0
  4 41  1  0
  5 42  1  0
  5 43  1  0
  6 44  1  0
  6 45  1  0
  8 46  1  0
  9 47  1  0
 12 48  1  0
 12 49  1  0
 14 50  1  0
 17 51  1  0
 18 52  1  0
 19 53  1  0
 22 54  1  0
 25 55  1  0
 28 56  1  0
 29 57  1  0
 30 58  1  0
 32 59  1  0
 33 60  1  0
 34 61  1  0
M  END
$$$$
