
     RDKit          3D

 80 85  0  0  0  0  0  0  0  0999 V2000
    4.0362    2.0605   -0.1802 C   0  0  0  0  0  0  0  0  0  0  0  0
    4.0151    0.6137   -0.4965 C   0  0  0  0  0  0  0  0  0  0  0  0
    5.1842   -0.0900   -0.4520 N   0  0  0  0  0  0  0  0  0  0  0  0
    5.2294   -1.3921   -0.7258 C   0  0  0  0  0  0  0  0  0  0  0  0
    6.4250   -2.0675   -0.6713 O   0  0  0  0  0  0  0  0  0  0  0  0
    7.5983   -1.3977   -0.3296 C   0  0  0  0  0  0  0  0  0  0  0  0
    8.3941   -0.8058   -1.2873 C   0  0  0  0  0  0  0  0  0  0  0  0
    9.5463   -0.1487   -0.9456 C   0  0  0  0  0  0  0  0  0  0  0  0
    9.9769   -0.0401    0.3667 C   0  0  0  0  0  0  0  0  0  0  0  0
   11.2127    0.6684    0.7028 C   0  0  0  0  0  0  0  0  0  0  0  0
   11.6167    0.7758    1.8822 O   0  0  0  0  0  0  0  0  0  0  0  0
   11.9485    1.2328   -0.3244 O   0  0  0  0  0  0  0  0  0  0  0  0
    9.1854   -0.6296    1.3256 C   0  0  0  0  0  0  0  0  0  0  0  0
    8.0300   -1.2881    0.9797 C   0  0  0  0  0  0  0  0  0  0  0  0
    4.0856   -2.0581   -1.0620 C   0  0  0  0  0  0  0  0  0  0  0  0
    2.8758   -1.3544   -1.1133 C   0  0  0  0  0  0  0  0  0  0  0  0
    2.8299   -0.0057   -0.8296 C   0  0  0  0  0  0  0  0  0  0  0  0
    1.5961    0.7752   -0.8697 C   0  0  0  0  0  0  0  0  0  0  0  0
    1.0606    1.0830    0.4282 N   0  0  0  0  0  0  0  0  0  0  0  0
   -0.1506    1.8649    0.3270 C   0  0  0  0  0  0  0  0  0  0  0  0
   -1.1045    1.5880    1.4662 C   0  0  0  0  0  0  0  0  0  0  0  0
   -1.4825    0.1424    1.5611 C   0  0  0  0  0  0  0  0  0  0  0  0
   -2.7397   -0.1688    0.9456 N   0  0  0  0  0  0  0  0  0  0  0  0
   -3.8426   -0.7670    1.6265 C   0  0  0  0  0  0  0  0  0  0  0  0
   -3.9326   -0.9082    2.8942 O   0  0  0  0  0  0  0  0  0  0  0  0
   -4.8326   -1.1857    0.6832 N   0  0  0  0  0  0  0  0  0  0  0  0
   -6.1522   -1.7694    0.9789 C   0  0  0  0  0  0  0  0  0  0  0  0
   -7.2244   -0.8619    0.5028 C   0  0  0  0  0  0  0  0  0  0  0  0
   -7.9195   -1.3235   -0.7632 C   0  0  0  0  0  0  0  0  0  0  0  0
   -8.3773   -2.6280   -0.4850 O   0  0  0  0  0  0  0  0  0  0  0  0
   -7.2533   -3.4415   -0.5543 C   0  0  0  0  0  0  0  0  0  0  0  0
   -6.2350   -3.1786    0.4815 C   0  0  0  0  0  0  0  0  0  0  0  0
   -4.2872   -0.9269   -0.6336 C   0  0  0  0  0  0  0  0  0  0  0  0
   -3.1439    0.0397   -0.4308 C   0  0  1  0  0  0  0  0  0  0  0  0
   -3.6774    1.4006   -0.6833 C   0  0  0  0  0  0  0  0  0  0  0  0
   -3.3018    2.1496   -1.7875 C   0  0  0  0  0  0  0  0  0  0  0  0
   -3.8386    3.4086   -1.9606 C   0  0  0  0  0  0  0  0  0  0  0  0
   -4.7394    3.9407   -1.0630 C   0  0  0  0  0  0  0  0  0  0  0  0
   -5.1139    3.2005    0.0332 C   0  0  0  0  0  0  0  0  0  0  0  0
   -6.2504    3.8442    1.1866 Cl  0  0  0  0  0  0  0  0  0  0  0  0
   -4.5744    1.9359    0.2066 C   0  0  0  0  0  0  0  0  0  0  0  0
   -0.4198   -0.7473    0.9014 C   0  0  0  0  0  0  0  0  0  0  0  0
    0.9186   -0.0881    1.2318 C   0  0  0  0  0  0  0  0  0  0  0  0
    5.0374    2.3583    0.1863 H   0  0  0  0  0  0  0  0  0  0  0  0
    3.7876    2.6386   -1.0951 H   0  0  0  0  0  0  0  0  0  0  0  0
    3.2479    2.2351    0.5780 H   0  0  0  0  0  0  0  0  0  0  0  0
    8.0741   -0.8795   -2.3243 H   0  0  0  0  0  0  0  0  0  0  0  0
   10.1730    0.3170   -1.6977 H   0  0  0  0  0  0  0  0  0  0  0  0
   12.5866    1.9939   -0.0494 H   0  0  0  0  0  0  0  0  0  0  0  0
    9.4947   -0.5615    2.3551 H   0  0  0  0  0  0  0  0  0  0  0  0
    7.3903   -1.7622    1.7353 H   0  0  0  0  0  0  0  0  0  0  0  0
    4.1503   -3.1066   -1.2773 H   0  0  0  0  0  0  0  0  0  0  0  0
    1.9682   -1.8787   -1.3789 H   0  0  0  0  0  0  0  0  0  0  0  0
    0.8083    0.2087   -1.4420 H   0  0  0  0  0  0  0  0  0  0  0  0
    1.7033    1.7407   -1.4385 H   0  0  0  0  0  0  0  0  0  0  0  0
    0.1463    2.9313    0.4056 H   0  0  0  0  0  0  0  0  0  0  0  0
   -0.5939    1.7014   -0.6603 H   0  0  0  0  0  0  0  0  0  0  0  0
   -0.5552    1.9088    2.3991 H   0  0  0  0  0  0  0  0  0  0  0  0
   -1.9525    2.2809    1.3733 H   0  0  0  0  0  0  0  0  0  0  0  0
   -1.4594   -0.1390    2.6432 H   0  0  0  0  0  0  0  0  0  0  0  0
   -6.2145   -1.8136    2.0891 H   0  0  0  0  0  0  0  0  0  0  0  0
   -6.8651    0.1808    0.3766 H   0  0  0  0  0  0  0  0  0  0  0  0
   -8.0531   -0.7736    1.2680 H   0  0  0  0  0  0  0  0  0  0  0  0
   -7.2329   -1.4322   -1.6212 H   0  0  0  0  0  0  0  0  0  0  0  0
   -8.7450   -0.6252   -0.9575 H   0  0  0  0  0  0  0  0  0  0  0  0
   -7.6408   -4.4948   -0.4853 H   0  0  0  0  0  0  0  0  0  0  0  0
   -6.8444   -3.3361   -1.5836 H   0  0  0  0  0  0  0  0  0  0  0  0
   -6.4085   -3.9168    1.3192 H   0  0  0  0  0  0  0  0  0  0  0  0
   -5.2361   -3.4601    0.0760 H   0  0  0  0  0  0  0  0  0  0  0  0
   -5.0275   -0.5396   -1.3478 H   0  0  0  0  0  0  0  0  0  0  0  0
   -3.9416   -1.9053   -1.0287 H   0  0  0  0  0  0  0  0  0  0  0  0
   -2.3304   -0.2224   -1.1422 H   0  0  0  0  0  0  0  0  0  0  0  0
   -2.5965    1.7102   -2.4721 H   0  0  0  0  0  0  0  0  0  0  0  0
   -3.5512    4.0108   -2.8281 H   0  0  0  0  0  0  0  0  0  0  0  0
   -5.1341    4.9407   -1.2452 H   0  0  0  0  0  0  0  0  0  0  0  0
   -4.9030    1.3906    1.0902 H   0  0  0  0  0  0  0  0  0  0  0  0
   -0.4316   -1.7427    1.3684 H   0  0  0  0  0  0  0  0  0  0  0  0
   -0.6166   -0.7417   -0.1695 H   0  0  0  0  0  0  0  0  0  0  0  0
    0.9012    0.1690    2.3102 H   0  0  0  0  0  0  0  0  0  0  0  0
    1.6925   -0.8368    0.9859 H   0  0  0  0  0  0  0  0  0  0  0  0
  1  2  1  0
  2  3  2  0
  3  4  1  0
  4  5  1  0
  5  6  1  0
  6  7  2  0
  7  8  1  0
  8  9  2  0
  9 10  1  0
 10 11  2  0
 10 12  1  0
  9 13  1  0
 13 14  2  0
  4 15  2  0
 15 16  1  0
 16 17  2  0
 17 18  1  0
 18 19  1  0
 19 20  1  0
 20 21  1  0
 21 22  1  0
 22 23  1  0
 23 24  1  0
 24 25  2  0
 24 26  1  0
 26 27  1  0
 27 28  1  0
 28 29  1  0
 29 30  1  0
 30 31  1  0
 31 32  1  0
 26 33  1  0
 33 34  1  0
 34 35  1  0
 35 36  2  0
 36 37  1  0
 37 38  2  0
 38 39  1  0
 39 40  1  0
 39 41  2  0
 22 42  1  0
 42 43  1  0
 17  2  1  0
 43 19  1  0
 14  6  1  0
 34 23  1  0
 41 35  1  0
 32 27  1  0
  1 44  1  0
  1 45  1  0
  1 46  1  0
  7 47  1  0
  8 48  1  0
 12 49  1  0
 13 50  1  0
 14 51  1  0
 15 52  1  0
 16 53  1  0
 18 54  1  0
 18 55  1  0
 20 56  1  0
 20 57  1  0
 21 58  1  0
 21 59  1  0
 22 60  1  0
 27 61  1  0
 28 62  1  0
 28 63  1  0
 29 64  1  0
 29 65  1  0
 31 66  1  0
 31 67  1  0
 32 68  1  0
 32 69  1  0
 33 70  1  0
 33 71  1  0
 34 72  1  6
 36 73  1  0
 37 74  1  0
 38 75  1  0
 41 76  1  0
 42 77  1  0
 42 78  1  0
 43 79  1  0
 43 80  1  0
M  END
$$$$
