
     RDKit          3D

 71 75  0  0  0  0  0  0  0  0999 V2000
   -1.7762   -0.2933    1.1296 O   0  0  0  0  0  0  0  0  0  0  0  0
   -1.4681    0.0291   -0.0656 C   0  0  0  0  0  0  0  0  0  0  0  0
   -0.0543    0.1506   -0.4892 C   0  0  0  0  0  0  0  0  0  0  0  0
    0.8118   -0.1406    0.6177 N   0  0  0  0  0  0  0  0  0  0  0  0
    2.2326   -0.1078    0.5212 C   0  0  0  0  0  0  0  0  0  0  0  0
    2.8277    0.2115   -0.6680 C   0  0  0  0  0  0  0  0  0  0  0  0
    4.1951    0.2518   -0.7944 C   0  0  0  0  0  0  0  0  0  0  0  0
    4.9517   -0.0443    0.3324 C   0  0  0  0  0  0  0  0  0  0  0  0
    6.4064   -0.0226    0.2776 C   0  0  0  0  0  0  0  0  0  0  0  0
    7.0363    0.8638   -0.5723 C   0  0  0  0  0  0  0  0  0  0  0  0
    8.4188    0.8639   -0.6042 C   0  0  0  0  0  0  0  0  0  0  0  0
    9.1389    0.0011    0.1921 C   0  0  0  0  0  0  0  0  0  0  0  0
   10.5555    0.0365    0.1263 N   0  0  0  0  0  0  0  0  0  0  0  0
   11.3149   -0.7607   -0.7765 C   0  0  0  0  0  0  0  0  0  0  0  0
   10.6515   -1.5222   -1.5372 O   0  0  0  0  0  0  0  0  0  0  0  0
   12.7986   -0.6897   -0.8097 C   0  0  0  0  0  0  0  0  0  0  0  0
   13.5774   -0.4179    0.4149 C   0  0  0  0  0  0  0  0  0  0  0  0
   13.4889    0.6291   -0.6504 C   0  0  0  0  0  0  0  0  0  0  0  0
    8.5215   -0.8606    1.0184 N   0  0  0  0  0  0  0  0  0  0  0  0
    7.1594   -0.8540    1.0437 C   0  0  0  0  0  0  0  0  0  0  0  0
    4.3664   -0.3645    1.5249 C   0  0  0  0  0  0  0  0  0  0  0  0
    2.9899   -0.3996    1.6317 C   0  0  0  0  0  0  0  0  0  0  0  0
   -2.5601    0.2585   -0.9430 N   0  0  0  0  0  0  0  0  0  0  0  0
   -3.9177    0.1363   -0.5155 C   0  0  0  0  0  0  0  0  0  0  0  0
   -4.6207    1.1973    0.0090 C   0  0  0  0  0  0  0  0  0  0  0  0
   -5.9240    1.0756    0.4183 C   0  0  0  0  0  0  0  0  0  0  0  0
   -6.5708   -0.1270    0.3136 C   0  0  0  0  0  0  0  0  0  0  0  0
   -7.9822   -0.2568    0.7563 C   0  0  0  0  0  0  0  0  0  0  0  0
   -8.9125   -0.2818   -0.3241 N   0  0  0  0  0  0  0  0  0  0  0  0
   -8.8712    0.9142   -1.1335 C   0  0  0  0  0  0  0  0  0  0  0  0
  -10.0739    1.7798   -0.8998 C   0  0  0  0  0  0  0  0  0  0  0  0
  -10.5362    1.7389    0.4709 N   0  0  0  0  0  0  0  0  0  0  0  0
  -10.9100    0.4073    0.8854 C   0  0  0  0  0  0  0  0  0  0  0  0
  -10.2387   -0.6617    0.0574 C   0  0  0  0  0  0  0  0  0  0  0  0
   -5.9081   -1.2146   -0.2044 C   0  0  0  0  0  0  0  0  0  0  0  0
   -6.5667   -2.5501   -0.3406 C   0  0  0  0  0  0  0  0  0  0  0  0
   -7.6444   -2.4129   -1.1605 F   0  0  0  0  0  0  0  0  0  0  0  0
   -6.9120   -3.0682    0.9107 F   0  0  0  0  0  0  0  0  0  0  0  0
   -5.6361   -3.4292   -0.8548 F   0  0  0  0  0  0  0  0  0  0  0  0
   -4.5998   -1.0550   -0.6053 C   0  0  0  0  0  0  0  0  0  0  0  0
    0.1951   -0.6060   -1.2903 H   0  0  0  0  0  0  0  0  0  0  0  0
    0.1542    1.1327   -0.9591 H   0  0  0  0  0  0  0  0  0  0  0  0
    0.3547   -0.3885    1.5378 H   0  0  0  0  0  0  0  0  0  0  0  0
    2.2217    0.4355   -1.5209 H   0  0  0  0  0  0  0  0  0  0  0  0
    4.6988    0.5022   -1.7257 H   0  0  0  0  0  0  0  0  0  0  0  0
    6.4624    1.5461   -1.2020 H   0  0  0  0  0  0  0  0  0  0  0  0
    8.8989    1.5573   -1.2688 H   0  0  0  0  0  0  0  0  0  0  0  0
   11.0424    0.6882    0.7837 H   0  0  0  0  0  0  0  0  0  0  0  0
   13.2495   -1.3661   -1.5630 H   0  0  0  0  0  0  0  0  0  0  0  0
   13.0593   -0.1883    1.3869 H   0  0  0  0  0  0  0  0  0  0  0  0
   14.5730   -0.8839    0.5779 H   0  0  0  0  0  0  0  0  0  0  0  0
   12.8273    1.5094   -0.4753 H   0  0  0  0  0  0  0  0  0  0  0  0
   14.3921    0.8744   -1.2412 H   0  0  0  0  0  0  0  0  0  0  0  0
    6.6360   -1.5455    1.7078 H   0  0  0  0  0  0  0  0  0  0  0  0
    4.9333   -0.6037    2.4347 H   0  0  0  0  0  0  0  0  0  0  0  0
    2.5351   -0.6533    2.5774 H   0  0  0  0  0  0  0  0  0  0  0  0
   -2.3931    0.5261   -1.9365 H   0  0  0  0  0  0  0  0  0  0  0  0
   -4.0676    2.1379    0.0750 H   0  0  0  0  0  0  0  0  0  0  0  0
   -6.4186    1.9650    0.8258 H   0  0  0  0  0  0  0  0  0  0  0  0
   -8.1331   -1.1819    1.3560 H   0  0  0  0  0  0  0  0  0  0  0  0
   -8.1811    0.5811    1.4772 H   0  0  0  0  0  0  0  0  0  0  0  0
   -7.9702    1.5111   -1.0129 H   0  0  0  0  0  0  0  0  0  0  0  0
   -8.9151    0.5745   -2.2012 H   0  0  0  0  0  0  0  0  0  0  0  0
  -10.9070    1.5497   -1.6271 H   0  0  0  0  0  0  0  0  0  0  0  0
   -9.7917    2.8299   -1.1212 H   0  0  0  0  0  0  0  0  0  0  0  0
  -11.3683    2.3664    0.5354 H   0  0  0  0  0  0  0  0  0  0  0  0
  -10.7245    0.2400    1.9748 H   0  0  0  0  0  0  0  0  0  0  0  0
  -12.0052    0.3015    0.7390 H   0  0  0  0  0  0  0  0  0  0  0  0
  -10.1534   -1.5620    0.7047 H   0  0  0  0  0  0  0  0  0  0  0  0
  -10.8766   -0.9400   -0.7919 H   0  0  0  0  0  0  0  0  0  0  0  0
   -4.0877   -1.9203   -1.0122 H   0  0  0  0  0  0  0  0  0  0  0  0
  1  2  2  0
  2  3  1  0
  3  4  1  0
  4  5  1  0
  5  6  2  0
  6  7  1  0
  7  8  2  0
  8  9  1  0
  9 10  2  0
 10 11  1  0
 11 12  2  0
 12 13  1  0
 13 14  1  0
 14 15  2  0
 14 16  1  0
 16 17  1  0
 17 18  1  0
 12 19  1  0
 19 20  2  0
  8 21  1  0
 21 22  2  0
  2 23  1  0
 23 24  1  0
 24 25  2  0
 25 26  1  0
 26 27  2  0
 27 28  1  0
 28 29  1  0
 29 30  1  0
 30 31  1  0
 31 32  1  0
 32 33  1  0
 33 34  1  0
 27 35  1  0
 35 36  1  0
 36 37  1  0
 36 38  1  0
 36 39  1  0
 35 40  2  0
 22  5  1  0
 40 24  1  0
 20  9  1  0
 34 29  1  0
 18 16  1  0
  3 41  1  0
  3 42  1  0
  4 43  1  0
  6 44  1  0
  7 45  1  0
 10 46  1  0
 11 47  1  0
 13 48  1  0
 16 49  1  0
 17 50  1  0
 17 51  1  0
 18 52  1  0
 18 53  1  0
 20 54  1  0
 21 55  1  0
 22 56  1  0
 23 57  1  0
 25 58  1  0
 26 59  1  0
 28 60  1  0
 28 61  1  0
 30 62  1  0
 30 63  1  0
 31 64  1  0
 31 65  1  0
 32 66  1  0
 33 67  1  0
 33 68  1  0
 34 69  1  0
 34 70  1  0
 40 71  1  0
M  END
$$$$
