
     RDKit          3D

 54 53  0  0  0  0  0  0  0  0999 V2000
    7.8528   -0.0149    2.3033 C   0  0  0  0  0  0  0  0  0  0  0  0
    7.2565   -1.2028    1.6166 C   0  0  0  0  0  0  0  0  0  0  0  0
    5.7887   -0.9480    1.3436 C   0  0  0  0  0  0  0  0  0  0  0  0
    5.7208    0.2775    0.4565 C   0  0  0  0  0  0  0  0  0  0  0  0
    4.2894    0.5748    0.1579 C   0  0  0  0  0  0  0  0  0  0  0  0
    3.5595   -0.5413   -0.5553 C   0  0  0  0  0  0  0  0  0  0  0  0
    2.1337   -0.0042   -0.7487 C   0  0  0  0  0  0  0  0  0  0  0  0
    1.2592   -1.0130   -1.4582 C   0  0  0  0  0  0  0  0  0  0  0  0
   -0.1286   -0.5186   -1.6592 C   0  0  0  0  0  0  0  0  0  0  0  0
   -0.5722    0.6540   -1.2755 C   0  0  0  0  0  0  0  0  0  0  0  0
   -1.9190    1.2066   -1.4384 C   0  0  0  0  0  0  0  0  0  0  0  0
   -2.9076    0.3426   -2.1184 C   0  0  0  0  0  0  0  0  0  0  0  0
   -4.2582    0.9799   -2.2451 C   0  0  0  0  0  0  0  0  0  0  0  0
   -4.8881    1.3361   -0.9306 C   0  0  0  0  0  0  0  0  0  0  0  0
   -5.0692    0.0795   -0.0741 C   0  0  0  0  0  0  0  0  0  0  0  0
   -5.7091    0.4386    1.2624 C   0  0  0  0  0  0  0  0  0  0  0  0
   -5.9032   -0.7779    2.1341 C   0  0  0  0  0  0  0  0  0  0  0  0
   -6.7830   -1.7420    1.4391 C   0  0  0  0  0  0  0  0  0  0  0  0
   -7.5101   -1.9463    0.2594 O   0  0  0  0  0  0  0  0  0  0  0  0
   -6.9382   -2.7617    2.1849 O   0  0  0  0  0  0  0  0  0  0  0  0
    8.8073   -0.2505    2.8178 H   0  0  0  0  0  0  0  0  0  0  0  0
    7.1814    0.4445    3.0500 H   0  0  0  0  0  0  0  0  0  0  0  0
    8.1097    0.7410    1.5394 H   0  0  0  0  0  0  0  0  0  0  0  0
    7.7731   -1.3467    0.6459 H   0  0  0  0  0  0  0  0  0  0  0  0
    7.3970   -2.0948    2.2268 H   0  0  0  0  0  0  0  0  0  0  0  0
    5.4033   -1.8446    0.8362 H   0  0  0  0  0  0  0  0  0  0  0  0
    5.2633   -0.7692    2.2832 H   0  0  0  0  0  0  0  0  0  0  0  0
    6.1800    1.1161    0.9874 H   0  0  0  0  0  0  0  0  0  0  0  0
    6.2485    0.1222   -0.5050 H   0  0  0  0  0  0  0  0  0  0  0  0
    3.6979    0.8452    1.0570 H   0  0  0  0  0  0  0  0  0  0  0  0
    4.2502    1.4465   -0.5516 H   0  0  0  0  0  0  0  0  0  0  0  0
    3.5508   -1.4261    0.1126 H   0  0  0  0  0  0  0  0  0  0  0  0
    4.0594   -0.7287   -1.5212 H   0  0  0  0  0  0  0  0  0  0  0  0
    1.7709    0.1778    0.2833 H   0  0  0  0  0  0  0  0  0  0  0  0
    2.2470    0.9417   -1.3173 H   0  0  0  0  0  0  0  0  0  0  0  0
    1.7246   -1.4079   -2.3594 H   0  0  0  0  0  0  0  0  0  0  0  0
    1.1626   -1.8819   -0.7540 H   0  0  0  0  0  0  0  0  0  0  0  0
   -0.8241   -1.1542   -2.1499 H   0  0  0  0  0  0  0  0  0  0  0  0
    0.1239    1.3352   -0.7645 H   0  0  0  0  0  0  0  0  0  0  0  0
   -1.7965    2.1434   -2.0371 H   0  0  0  0  0  0  0  0  0  0  0  0
   -2.2990    1.4402   -0.4100 H   0  0  0  0  0  0  0  0  0  0  0  0
   -2.5264    0.0487   -3.1168 H   0  0  0  0  0  0  0  0  0  0  0  0
   -3.0580   -0.6187   -1.5669 H   0  0  0  0  0  0  0  0  0  0  0  0
   -4.9681    0.3234   -2.7891 H   0  0  0  0  0  0  0  0  0  0  0  0
   -4.1696    1.9100   -2.8439 H   0  0  0  0  0  0  0  0  0  0  0  0
   -4.3500    2.0645   -0.3323 H   0  0  0  0  0  0  0  0  0  0  0  0
   -5.9140    1.7241   -1.0969 H   0  0  0  0  0  0  0  0  0  0  0  0
   -4.0982   -0.3867    0.1871 H   0  0  0  0  0  0  0  0  0  0  0  0
   -5.6815   -0.6885   -0.5673 H   0  0  0  0  0  0  0  0  0  0  0  0
   -5.1100    1.1999    1.7982 H   0  0  0  0  0  0  0  0  0  0  0  0
   -6.7173    0.8318    1.0198 H   0  0  0  0  0  0  0  0  0  0  0  0
   -4.9398   -1.2744    2.3643 H   0  0  0  0  0  0  0  0  0  0  0  0
   -6.3782   -0.4136    3.0671 H   0  0  0  0  0  0  0  0  0  0  0  0
   -7.3944   -2.8156   -0.2471 H   0  0  0  0  0  0  0  0  0  0  0  0
  1  2  1  0
  2  3  1  0
  3  4  1  0
  4  5  1  0
  5  6  1  0
  6  7  1  0
  7  8  1  0
  8  9  1  0
  9 10  2  0
 10 11  1  0
 11 12  1  0
 12 13  1  0
 13 14  1  0
 14 15  1  0
 15 16  1  0
 16 17  1  0
 17 18  1  0
 18 19  1  0
 18 20  2  0
  1 21  1  0
  1 22  1  0
  1 23  1  0
  2 24  1  0
  2 25  1  0
  3 26  1  0
  3 27  1  0
  4 28  1  0
  4 29  1  0
  5 30  1  0
  5 31  1  0
  6 32  1  0
  6 33  1  0
  7 34  1  0
  7 35  1  0
  8 36  1  0
  8 37  1  0
  9 38  1  0
 10 39  1  0
 11 40  1  0
 11 41  1  0
 12 42  1  0
 12 43  1  0
 13 44  1  0
 13 45  1  0
 14 46  1  0
 14 47  1  0
 15 48  1  0
 15 49  1  0
 16 50  1  0
 16 51  1  0
 17 52  1  0
 17 53  1  0
 19 54  1  0
M  END
$$$$
