
     RDKit          3D

120124  0  0  0  0  0  0  0  0999 V2000
   -0.3333   -1.5018    0.3342 C   0  0  1  0  0  0  0  0  0  0  0  0
   -0.9929   -2.3887    1.1786 O   0  0  0  0  0  0  0  0  0  0  0  0
    0.7150   -2.2371   -0.4687 C   0  0  0  0  0  0  0  0  0  0  0  0
    0.1512   -3.2828   -1.1825 O   0  0  0  0  0  0  0  0  0  0  0  0
    1.9774   -2.2180   -0.7155 N   0  0  0  0  0  0  0  0  0  0  0  0
    2.8189   -1.2240   -0.0984 C   0  0  0  0  0  0  0  0  0  0  0  0
    3.4945   -0.3143   -1.1008 C   0  0  0  0  0  0  0  0  0  0  0  0
    4.3456    0.6432   -0.3053 C   0  0  0  0  0  0  0  0  0  0  0  0
    5.3037   -0.0939    0.4065 O   0  0  0  0  0  0  0  0  0  0  0  0
    4.4750    1.9202   -0.0682 N   0  0  0  0  0  0  0  0  0  0  0  0
    3.6027    2.8597   -0.6835 C   0  0  0  0  0  0  0  0  0  0  0  0
    4.3206    4.1284   -1.0316 C   0  0  0  0  0  0  0  0  0  0  0  0
    5.0147    4.8838    0.4307 S   0  0  0  0  0  0  0  0  0  0  0  0
    6.4008    3.9324    1.0847 C   0  0  0  0  0  0  0  0  0  0  0  0
    7.5292    4.0262    0.0784 C   0  0  0  0  0  0  0  0  0  0  0  0
    8.7644    3.2859    0.4746 C   0  0  0  0  0  0  0  0  0  0  0  0
    8.5564    1.8001    0.6513 C   0  0  0  0  0  0  0  0  0  0  0  0
    8.0785    1.1884   -0.6363 C   0  0  0  0  0  0  0  0  0  0  0  0
    7.2863    0.9372   -1.7353 O   0  0  0  0  0  0  0  0  0  0  0  0
    8.5181    0.2986   -1.4221 N   0  0  0  0  0  0  0  0  0  0  0  0
    9.7475   -0.4090   -1.2044 C   0  0  0  0  0  0  0  0  0  0  0  0
    9.6015   -1.6606   -0.3889 C   0  0  0  0  0  0  0  0  0  0  0  0
   10.9404   -2.2942   -0.2593 C   0  0  0  0  0  0  0  0  0  0  0  0
   11.3302   -3.4191   -0.9832 C   0  0  0  0  0  0  0  0  0  0  0  0
   12.5861   -3.8040   -0.6963 N   0  0  0  0  0  0  0  0  0  0  0  0
   13.0488   -2.9293    0.2313 C   0  0  0  0  0  0  0  0  0  0  0  0
   14.2517   -2.8299    0.8822 C   0  0  0  0  0  0  0  0  0  0  0  0
   14.4901   -1.8219    1.8091 C   0  0  0  0  0  0  0  0  0  0  0  0
   13.4608   -0.9119    2.0555 C   0  0  0  0  0  0  0  0  0  0  0  0
   12.2255   -0.9905    1.4056 C   0  0  0  0  0  0  0  0  0  0  0  0
   12.0514   -2.0191    0.4925 C   0  0  0  0  0  0  0  0  0  0  0  0
   -1.3207   -0.8510   -0.5780 C   0  0  0  0  0  0  0  0  0  0  0  0
   -0.6071    0.1350   -1.5081 C   0  0  0  0  0  0  0  0  0  0  0  0
   -1.9529   -1.9368   -1.4509 C   0  0  0  0  0  0  0  0  0  0  0  0
   -2.4415   -0.2054    0.1682 C   0  0  0  0  0  0  0  0  0  0  0  0
   -2.0797    0.7849    1.0488 O   0  0  0  0  0  0  0  0  0  0  0  0
   -3.4633    1.4497    1.8100 P   0  0  0  0  0  0  0  0  0  0  0  0
   -2.9230    2.2282    3.2085 O   0  0  0  0  0  0  0  0  0  0  0  0
   -4.4330    0.3335    2.1261 O   0  0  0  0  0  0  0  0  0  0  0  0
   -4.1198    2.5817    0.7643 O   0  0  0  0  0  0  0  0  0  0  0  0
   -5.7062    2.9949    1.0984 P   0  0  0  0  0  0  0  0  0  0  0  0
   -5.8661    4.6557    0.7017 O   0  0  0  0  0  0  0  0  0  0  0  0
   -5.9646    2.7909    2.5733 O   0  0  0  0  0  0  0  0  0  0  0  0
   -6.8180    2.1534    0.1388 O   0  0  0  0  0  0  0  0  0  0  0  0
   -8.0474    2.0401    0.7373 C   0  0  0  0  0  0  0  0  0  0  0  0
   -9.0993    1.4532   -0.1612 C   0  0  1  0  0  0  0  0  0  0  0  0
   -8.7902    0.1719   -0.6033 O   0  0  0  0  0  0  0  0  0  0  0  0
   -9.9719   -0.3866   -1.0668 C   0  0  1  0  0  0  0  0  0  0  0  0
  -10.0595   -1.7389   -0.5485 N   0  0  0  0  0  0  0  0  0  0  0  0
   -9.4316   -2.3393    0.4954 C   0  0  0  0  0  0  0  0  0  0  0  0
   -9.8930   -3.6154    0.5183 N   0  0  0  0  0  0  0  0  0  0  0  0
  -10.7765   -3.7945   -0.4795 C   0  0  0  0  0  0  0  0  0  0  0  0
  -11.4971   -4.9124   -0.8459 C   0  0  0  0  0  0  0  0  0  0  0  0
  -11.4186   -6.1617   -0.1751 N   0  0  0  0  0  0  0  0  0  0  0  0
  -12.3320   -4.8346   -1.9023 N   0  0  0  0  0  0  0  0  0  0  0  0
  -12.4494   -3.6736   -2.5798 C   0  0  0  0  0  0  0  0  0  0  0  0
  -11.7370   -2.5924   -2.2062 N   0  0  0  0  0  0  0  0  0  0  0  0
  -10.9001   -2.6123   -1.1743 C   0  0  0  0  0  0  0  0  0  0  0  0
  -11.1276    0.3922   -0.4881 C   0  0  2  0  0  0  0  0  0  0  0  0
  -11.7166    1.2029   -1.4800 O   0  0  0  0  0  0  0  0  0  0  0  0
  -10.4108    1.2464    0.5303 C   0  0  2  0  0  0  0  0  0  0  0  0
  -11.0857    2.4344    0.7844 O   0  0  0  0  0  0  0  0  0  0  0  0
  -11.4492    2.4524    2.4377 P   0  0  0  0  0  0  0  0  0  0  0  0
  -12.9332    1.6844    2.7409 O   0  0  0  0  0  0  0  0  0  0  0  0
  -10.2612    1.6154    3.3053 O   0  0  0  0  0  0  0  0  0  0  0  0
  -11.6009    3.8786    2.9423 O   0  0  0  0  0  0  0  0  0  0  0  0
    0.1920   -0.7733    0.9880 H   0  0  0  0  0  0  0  0  0  0  0  0
   -1.1141   -2.0500    2.1022 H   0  0  0  0  0  0  0  0  0  0  0  0
    0.5237   -3.5875   -2.0637 H   0  0  0  0  0  0  0  0  0  0  0  0
    2.2188   -0.5439    0.5693 H   0  0  0  0  0  0  0  0  0  0  0  0
    3.5664   -1.7081    0.5496 H   0  0  0  0  0  0  0  0  0  0  0  0
    4.1644   -0.9303   -1.7175 H   0  0  0  0  0  0  0  0  0  0  0  0
    2.7550    0.2510   -1.6805 H   0  0  0  0  0  0  0  0  0  0  0  0
    5.8415    0.2829    1.1833 H   0  0  0  0  0  0  0  0  0  0  0  0
    3.1175    2.4284   -1.6018 H   0  0  0  0  0  0  0  0  0  0  0  0
    2.7846    3.1361    0.0450 H   0  0  0  0  0  0  0  0  0  0  0  0
    3.6107    4.8559   -1.5152 H   0  0  0  0  0  0  0  0  0  0  0  0
    5.1506    3.8745   -1.7499 H   0  0  0  0  0  0  0  0  0  0  0  0
    6.0791    2.9152    1.3078 H   0  0  0  0  0  0  0  0  0  0  0  0
    6.7317    4.4791    2.0175 H   0  0  0  0  0  0  0  0  0  0  0  0
    7.7430    5.1059   -0.0761 H   0  0  0  0  0  0  0  0  0  0  0  0
    7.1197    3.6313   -0.8729 H   0  0  0  0  0  0  0  0  0  0  0  0
    9.1245    3.7265    1.4470 H   0  0  0  0  0  0  0  0  0  0  0  0
    9.5407    3.4347   -0.3042 H   0  0  0  0  0  0  0  0  0  0  0  0
    9.5408    1.3417    0.8733 H   0  0  0  0  0  0  0  0  0  0  0  0
    7.8547    1.5608    1.4483 H   0  0  0  0  0  0  0  0  0  0  0  0
    6.5239    1.5899   -1.9662 H   0  0  0  0  0  0  0  0  0  0  0  0
   10.2259   -0.7052   -2.1706 H   0  0  0  0  0  0  0  0  0  0  0  0
   10.4535    0.2623   -0.6747 H   0  0  0  0  0  0  0  0  0  0  0  0
    8.9048   -2.3569   -0.8511 H   0  0  0  0  0  0  0  0  0  0  0  0
    9.1747   -1.3862    0.6071 H   0  0  0  0  0  0  0  0  0  0  0  0
   10.7167   -3.9502   -1.7047 H   0  0  0  0  0  0  0  0  0  0  0  0
   13.1026   -4.6107   -1.1034 H   0  0  0  0  0  0  0  0  0  0  0  0
   14.9934   -3.5790    0.6281 H   0  0  0  0  0  0  0  0  0  0  0  0
   15.4301   -1.7604    2.3055 H   0  0  0  0  0  0  0  0  0  0  0  0
   13.6597   -0.1341    2.7774 H   0  0  0  0  0  0  0  0  0  0  0  0
   11.4430   -0.2889    1.6007 H   0  0  0  0  0  0  0  0  0  0  0  0
   -1.3520    0.8818   -1.8397 H   0  0  0  0  0  0  0  0  0  0  0  0
   -0.2635   -0.4306   -2.3890 H   0  0  0  0  0  0  0  0  0  0  0  0
    0.2025    0.6178   -0.9238 H   0  0  0  0  0  0  0  0  0  0  0  0
   -1.4010   -2.0689   -2.3936 H   0  0  0  0  0  0  0  0  0  0  0  0
   -2.1162   -2.8755   -0.9203 H   0  0  0  0  0  0  0  0  0  0  0  0
   -2.9839   -1.6028   -1.7799 H   0  0  0  0  0  0  0  0  0  0  0  0
   -2.9667   -0.9912    0.7507 H   0  0  0  0  0  0  0  0  0  0  0  0
   -3.1943    0.1958   -0.5683 H   0  0  0  0  0  0  0  0  0  0  0  0
   -2.9703    3.2031    3.0884 H   0  0  0  0  0  0  0  0  0  0  0  0
   -5.8441    4.6560   -0.3075 H   0  0  0  0  0  0  0  0  0  0  0  0
   -7.9251    1.3281    1.5900 H   0  0  0  0  0  0  0  0  0  0  0  0
   -8.4316    2.9785    1.1800 H   0  0  0  0  0  0  0  0  0  0  0  0
   -9.2583    2.1497   -1.0056 H   0  0  0  0  0  0  0  0  0  0  0  0
  -10.0107   -0.3747   -2.1821 H   0  0  0  0  0  0  0  0  0  0  0  0
   -8.7338   -1.8143    1.1071 H   0  0  0  0  0  0  0  0  0  0  0  0
  -10.5727   -6.5125   -0.6578 H   0  0  0  0  0  0  0  0  0  0  0  0
  -12.1266   -6.3938    0.5391 H   0  0  0  0  0  0  0  0  0  0  0  0
  -13.1300   -3.6550   -3.4208 H   0  0  0  0  0  0  0  0  0  0  0  0
  -11.8839   -0.2710   -0.0197 H   0  0  0  0  0  0  0  0  0  0  0  0
  -11.1391    1.3223   -2.2667 H   0  0  0  0  0  0  0  0  0  0  0  0
  -10.3211    0.6948    1.4879 H   0  0  0  0  0  0  0  0  0  0  0  0
  -13.2045    1.0919    1.9774 H   0  0  0  0  0  0  0  0  0  0  0  0
  -10.6226    0.7806    3.7154 H   0  0  0  0  0  0  0  0  0  0  0  0
  1  2  1  0
  1  3  1  0
  3  4  1  0
  3  5  2  3
  5  6  1  0
  6  7  1  0
  7  8  1  0
  8  9  1  0
  8 10  2  3
 10 11  1  0
 11 12  1  0
 12 13  1  0
 13 14  1  0
 14 15  1  0
 15 16  1  0
 16 17  1  0
 17 18  1  0
 18 19  1  0
 18 20  2  3
 20 21  1  0
 21 22  1  0
 22 23  1  0
 23 24  2  0
 24 25  1  0
 25 26  1  0
 26 27  2  0
 27 28  1  0
 28 29  2  0
 29 30  1  0
 30 31  2  0
  1 32  1  0
 32 33  1  0
 32 34  1  0
 32 35  1  0
 35 36  1  0
 36 37  1  0
 37 38  1  0
 37 39  2  0
 37 40  1  0
 40 41  1  0
 41 42  1  0
 41 43  2  0
 41 44  1  0
 44 45  1  0
 45 46  1  0
 46 47  1  0
 47 48  1  0
 48 49  1  0
 49 50  1  0
 50 51  2  0
 51 52  1  0
 52 53  2  0
 53 54  1  0
 53 55  1  0
 55 56  2  0
 56 57  1  0
 57 58  2  0
 48 59  1  0
 59 60  1  0
 59 61  1  0
 61 62  1  0
 62 63  1  0
 63 64  1  0
 63 65  1  0
 63 66  2  0
 31 23  1  0
 61 46  1  0
 31 26  1  0
 58 49  1  0
 58 52  1  0
  1 67  1  1
  2 68  1  0
  4 69  1  0
  6 70  1  0
  6 71  1  0
  7 72  1  0
  7 73  1  0
  9 74  1  0
 11 75  1  0
 11 76  1  0
 12 77  1  0
 12 78  1  0
 14 79  1  0
 14 80  1  0
 15 81  1  0
 15 82  1  0
 16 83  1  0
 16 84  1  0
 17 85  1  0
 17 86  1  0
 19 87  1  0
 21 88  1  0
 21 89  1  0
 22 90  1  0
 22 91  1  0
 24 92  1  0
 25 93  1  0
 27 94  1  0
 28 95  1  0
 29 96  1  0
 30 97  1  0
 33 98  1  0
 33 99  1  0
 33100  1  0
 34101  1  0
 34102  1  0
 34103  1  0
 35104  1  0
 35105  1  0
 38106  1  0
 42107  1  0
 45108  1  0
 45109  1  0
 46110  1  6
 48111  1  6
 50112  1  0
 54113  1  0
 54114  1  0
 56115  1  0
 59116  1  1
 60117  1  0
 61118  1  1
 64119  1  0
 65120  1  0
M  END
$$$$
