
     RDKit          3D

 67 70  0  0  0  0  0  0  0  0999 V2000
   -0.5131   -4.4257    1.2497 C   0  0  0  0  0  0  0  0  0  0  0  0
   -1.5630   -4.0404    2.2539 C   0  0  0  0  0  0  0  0  0  0  0  0
   -1.6605   -2.5860    2.5819 C   0  0  0  0  0  0  0  0  0  0  0  0
   -1.9793   -1.7618    1.3908 C   0  0  0  0  0  0  0  0  0  0  0  0
   -3.2957   -1.4289    1.1392 C   0  0  0  0  0  0  0  0  0  0  0  0
   -3.7449   -0.6988    0.0605 C   0  0  0  0  0  0  0  0  0  0  0  0
   -5.1631   -0.4277   -0.1357 C   0  0  0  0  0  0  0  0  0  0  0  0
   -5.7085    0.7180   -0.3515 C   0  0  0  0  0  0  0  0  0  0  0  0
   -7.2104    0.7572   -0.5313 C   0  0  0  0  0  0  0  0  0  0  0  0
   -7.7187    2.1784   -0.4699 C   0  0  0  0  0  0  0  0  0  0  0  0
   -7.0287    3.0997   -1.4401 C   0  0  0  0  0  0  0  0  0  0  0  0
   -5.5699    2.7351   -1.6481 C   0  0  0  0  0  0  0  0  0  0  0  0
   -5.0387    2.0302   -0.4096 C   0  0  0  0  0  0  0  0  0  0  0  0
   -2.7688   -0.2809   -0.8250 C   0  0  0  0  0  0  0  0  0  0  0  0
   -1.4440   -0.5806   -0.6265 C   0  0  0  0  0  0  0  0  0  0  0  0
   -1.0433   -1.3222    0.4831 C   0  0  0  0  0  0  0  0  0  0  0  0
    0.2974   -1.6085    0.6667 O   0  0  0  0  0  0  0  0  0  0  0  0
    1.2955   -1.1846   -0.2335 C   0  0  0  0  0  0  0  0  0  0  0  0
    2.6386   -1.6915    0.3091 C   0  0  0  0  0  0  0  0  0  0  0  0
    2.8439   -1.0889    1.6616 C   0  0  0  0  0  0  0  0  0  0  0  0
    2.8855    0.2754    1.6241 O   0  0  0  0  0  0  0  0  0  0  0  0
    3.8363    1.0705    1.0301 C   0  0  0  0  0  0  0  0  0  0  0  0
    3.6635    2.4707    1.0634 C   0  0  0  0  0  0  0  0  0  0  0  0
    4.5848    3.2914    0.4896 C   0  0  0  0  0  0  0  0  0  0  0  0
    5.7056    2.7356   -0.1340 C   0  0  0  0  0  0  0  0  0  0  0  0
    5.8792    1.3946   -0.1698 C   0  0  0  0  0  0  0  0  0  0  0  0
    7.0429    0.8451   -0.8251 C   0  0  0  0  0  0  0  0  0  0  0  0
    7.3804   -0.8950   -0.9268 S   0  0  0  0  0  0  0  0  0  0  0  0
    8.9761   -0.7447   -1.8821 C   0  0  0  0  0  0  0  0  0  0  0  0
    9.6577   -1.6724   -2.2338 O   0  0  0  0  0  0  0  0  0  0  0  0
    9.0250    0.5768   -1.9858 N   0  0  0  0  0  0  0  0  0  0  0  0
    8.1283    1.3694   -1.4984 C   0  0  0  0  0  0  0  0  0  0  0  0
    8.2065    2.7967   -1.6249 O   0  0  0  0  0  0  0  0  0  0  0  0
    4.9366    0.5674    0.4178 C   0  0  0  0  0  0  0  0  0  0  0  0
   -0.7236   -4.0488    0.2373 H   0  0  0  0  0  0  0  0  0  0  0  0
    0.4784   -4.1115    1.6031 H   0  0  0  0  0  0  0  0  0  0  0  0
   -0.5604   -5.5506    1.1429 H   0  0  0  0  0  0  0  0  0  0  0  0
   -1.4877   -4.6516    3.1865 H   0  0  0  0  0  0  0  0  0  0  0  0
   -2.5440   -4.3967    1.7986 H   0  0  0  0  0  0  0  0  0  0  0  0
   -0.6836   -2.2615    3.0092 H   0  0  0  0  0  0  0  0  0  0  0  0
   -2.4770   -2.4518    3.3263 H   0  0  0  0  0  0  0  0  0  0  0  0
   -4.0433   -1.7671    1.8455 H   0  0  0  0  0  0  0  0  0  0  0  0
   -5.8090   -1.3218   -0.0885 H   0  0  0  0  0  0  0  0  0  0  0  0
   -7.4928    0.2339   -1.4507 H   0  0  0  0  0  0  0  0  0  0  0  0
   -7.6290    0.2076    0.3335 H   0  0  0  0  0  0  0  0  0  0  0  0
   -8.7942    2.1484   -0.7070 H   0  0  0  0  0  0  0  0  0  0  0  0
   -7.6473    2.5336    0.5914 H   0  0  0  0  0  0  0  0  0  0  0  0
   -7.0538    4.1231   -1.0045 H   0  0  0  0  0  0  0  0  0  0  0  0
   -7.5363    3.1071   -2.4126 H   0  0  0  0  0  0  0  0  0  0  0  0
   -5.4856    2.0169   -2.4885 H   0  0  0  0  0  0  0  0  0  0  0  0
   -4.9545    3.6455   -1.8049 H   0  0  0  0  0  0  0  0  0  0  0  0
   -3.9651    1.9460   -0.4644 H   0  0  0  0  0  0  0  0  0  0  0  0
   -5.3139    2.6081    0.5110 H   0  0  0  0  0  0  0  0  0  0  0  0
   -3.0129    0.2790   -1.7128 H   0  0  0  0  0  0  0  0  0  0  0  0
   -0.6592   -0.2688   -1.2978 H   0  0  0  0  0  0  0  0  0  0  0  0
    1.0936   -1.5666   -1.2477 H   0  0  0  0  0  0  0  0  0  0  0  0
    1.3357   -0.0897   -0.2972 H   0  0  0  0  0  0  0  0  0  0  0  0
    3.3706   -1.4397   -0.4527 H   0  0  0  0  0  0  0  0  0  0  0  0
    2.6044   -2.8112    0.4022 H   0  0  0  0  0  0  0  0  0  0  0  0
    3.7496   -1.5117    2.1687 H   0  0  0  0  0  0  0  0  0  0  0  0
    1.9888   -1.4313    2.3277 H   0  0  0  0  0  0  0  0  0  0  0  0
    2.7630    2.8451    1.5674 H   0  0  0  0  0  0  0  0  0  0  0  0
    4.4377    4.3760    0.5236 H   0  0  0  0  0  0  0  0  0  0  0  0
    6.3746    3.4598   -0.5573 H   0  0  0  0  0  0  0  0  0  0  0  0
    9.9025    0.9719   -2.5295 H   0  0  0  0  0  0  0  0  0  0  0  0
    9.0740    3.2061   -1.3623 H   0  0  0  0  0  0  0  0  0  0  0  0
    5.1671   -0.5012    0.3763 H   0  0  0  0  0  0  0  0  0  0  0  0
  1  2  1  0
  2  3  1  0
  3  4  1  0
  4  5  2  0
  5  6  1  0
  6  7  1  0
  7  8  2  3
  8  9  1  0
  9 10  1  0
 10 11  1  0
 11 12  1  0
 12 13  1  0
  6 14  2  0
 14 15  1  0
 15 16  2  0
 16 17  1  0
 17 18  1  0
 18 19  1  0
 19 20  1  0
 20 21  1  0
 21 22  1  0
 22 23  2  0
 23 24  1  0
 24 25  2  0
 25 26  1  0
 26 27  1  0
 27 28  1  0
 28 29  1  0
 29 30  2  0
 29 31  1  0
 31 32  1  0
 32 33  1  0
 26 34  2  0
 16  4  1  0
 34 22  1  0
 13  8  1  0
 32 27  2  0
  1 35  1  0
  1 36  1  0
  1 37  1  0
  2 38  1  0
  2 39  1  0
  3 40  1  0
  3 41  1  0
  5 42  1  0
  7 43  1  0
  9 44  1  0
  9 45  1  0
 10 46  1  0
 10 47  1  0
 11 48  1  0
 11 49  1  0
 12 50  1  0
 12 51  1  0
 13 52  1  0
 13 53  1  0
 14 54  1  0
 15 55  1  0
 18 56  1  0
 18 57  1  0
 19 58  1  0
 19 59  1  0
 20 60  1  0
 20 61  1  0
 23 62  1  0
 24 63  1  0
 25 64  1  0
 31 65  1  0
 33 66  1  0
 34 67  1  0
M  END
$$$$
