
     RDKit          3D

 62 65  0  0  0  0  0  0  0  0999 V2000
   -6.9521    1.7220   -4.0354 C   0  0  0  0  0  0  0  0  0  0  0  0
   -6.8107    2.2170   -2.7241 O   0  0  0  0  0  0  0  0  0  0  0  0
   -5.8754    1.5867   -1.9021 C   0  0  0  0  0  0  0  0  0  0  0  0
   -5.1117    0.5279   -2.3262 C   0  0  0  0  0  0  0  0  0  0  0  0
   -4.1967   -0.0903   -1.5253 C   0  0  0  0  0  0  0  0  0  0  0  0
   -4.0624    0.4023   -0.2340 C   0  0  0  0  0  0  0  0  0  0  0  0
   -3.1013   -0.2033    0.6904 C   0  0  0  0  0  0  0  0  0  0  0  0
   -2.4803    0.5528    1.6658 C   0  0  0  0  0  0  0  0  0  0  0  0
   -1.5731   -0.0052    2.5406 C   0  0  0  0  0  0  0  0  0  0  0  0
   -1.2375   -1.3594    2.4841 C   0  0  0  0  0  0  0  0  0  0  0  0
   -0.0938   -2.0630    3.5864 S   0  0  0  0  0  6  0  0  0  0  0  0
   -0.1566   -1.4259    4.9469 O   0  0  0  0  0  0  0  0  0  0  0  0
   -0.4411   -3.5176    3.7587 O   0  0  0  0  0  0  0  0  0  0  0  0
    1.4744   -1.9806    2.9119 N   0  0  0  0  0  0  0  0  0  0  0  0
    1.9498   -0.6585    2.6578 C   0  0  1  0  0  0  0  0  0  0  0  0
    3.1436   -0.3451    3.5203 C   0  0  0  0  0  0  0  0  0  0  0  0
    3.6679    0.7765    3.4069 O   0  0  0  0  0  0  0  0  0  0  0  0
    3.6545   -1.2756    4.4218 O   0  0  0  0  0  0  0  0  0  0  0  0
    2.3582   -0.5067    1.2371 C   0  0  0  0  0  0  0  0  0  0  0  0
    3.4662   -1.4882    0.9115 C   0  0  0  0  0  0  0  0  0  0  0  0
    4.1361   -0.9993   -0.3418 C   0  0  0  0  0  0  0  0  0  0  0  0
    3.2111   -0.6257   -1.4449 C   0  0  0  0  0  0  0  0  0  0  0  0
    3.7767    0.5240   -2.1273 N   0  0  0  0  0  0  0  0  0  0  0  0
    3.6100    1.8344   -1.9095 C   0  0  0  0  0  0  0  0  0  0  0  0
    2.8282    2.4222   -0.9475 O   0  0  0  0  0  0  0  0  0  0  0  0
    4.3673    2.5682   -2.8264 C   0  0  0  0  0  0  0  0  0  0  0  0
    4.9828    1.6756   -3.5881 N   0  0  0  0  0  0  0  0  0  0  0  0
    4.6312    0.4624   -3.1716 C   0  0  0  0  0  0  0  0  0  0  0  0
    5.0510   -0.6234   -3.6957 O   0  0  0  0  0  0  0  0  0  0  0  0
    1.7880   -0.4507   -1.1460 C   0  0  0  0  0  0  0  0  0  0  0  0
    1.2896   -0.7666    0.2196 C   0  0  0  0  0  0  0  0  0  0  0  0
   -1.8627   -2.1032    1.5082 C   0  0  0  0  0  0  0  0  0  0  0  0
   -2.7702   -1.5413    0.6344 C   0  0  0  0  0  0  0  0  0  0  0  0
   -4.8199    1.4619    0.2053 C   0  0  0  0  0  0  0  0  0  0  0  0
   -5.7342    2.0682   -0.6179 C   0  0  0  0  0  0  0  0  0  0  0  0
   -7.2808    0.6484   -3.9186 H   0  0  0  0  0  0  0  0  0  0  0  0
   -6.0161    1.7579   -4.6152 H   0  0  0  0  0  0  0  0  0  0  0  0
   -7.7604    2.2702   -4.5522 H   0  0  0  0  0  0  0  0  0  0  0  0
   -5.2405    0.1652   -3.3455 H   0  0  0  0  0  0  0  0  0  0  0  0
   -3.5767   -0.9205   -1.8100 H   0  0  0  0  0  0  0  0  0  0  0  0
   -2.7441    1.6104    1.7075 H   0  0  0  0  0  0  0  0  0  0  0  0
   -1.1121    0.6072    3.2820 H   0  0  0  0  0  0  0  0  0  0  0  0
    1.5543   -2.5481    2.0479 H   0  0  0  0  0  0  0  0  0  0  0  0
    1.2053    0.1269    2.9095 H   0  0  0  0  0  0  0  0  0  0  0  0
    4.6294   -1.2813    4.6546 H   0  0  0  0  0  0  0  0  0  0  0  0
    2.7833    0.5101    1.0177 H   0  0  0  0  0  0  0  0  0  0  0  0
    3.0805   -2.4979    0.7113 H   0  0  0  0  0  0  0  0  0  0  0  0
    4.1669   -1.5076    1.7441 H   0  0  0  0  0  0  0  0  0  0  0  0
    4.7609   -0.1172   -0.0367 H   0  0  0  0  0  0  0  0  0  0  0  0
    4.8689   -1.7813   -0.6313 H   0  0  0  0  0  0  0  0  0  0  0  0
    3.2840   -1.4775   -2.1928 H   0  0  0  0  0  0  0  0  0  0  0  0
    3.1617    3.1351   -0.3099 H   0  0  0  0  0  0  0  0  0  0  0  0
    4.4422    3.6434   -2.9073 H   0  0  0  0  0  0  0  0  0  0  0  0
    5.6388    1.8779   -4.3870 H   0  0  0  0  0  0  0  0  0  0  0  0
    1.4671    0.6079   -1.3855 H   0  0  0  0  0  0  0  0  0  0  0  0
    1.1227   -1.0388   -1.8563 H   0  0  0  0  0  0  0  0  0  0  0  0
    1.0059   -1.8552    0.2306 H   0  0  0  0  0  0  0  0  0  0  0  0
    0.3733   -0.1631    0.4112 H   0  0  0  0  0  0  0  0  0  0  0  0
   -1.6133   -3.1638    1.4486 H   0  0  0  0  0  0  0  0  0  0  0  0
   -3.2569   -2.1314   -0.1297 H   0  0  0  0  0  0  0  0  0  0  0  0
   -4.7044    1.8318    1.2077 H   0  0  0  0  0  0  0  0  0  0  0  0
   -6.3466    2.9192   -0.2711 H   0  0  0  0  0  0  0  0  0  0  0  0
  1  2  1  0
  2  3  1  0
  3  4  2  0
  4  5  1  0
  5  6  2  0
  6  7  1  0
  7  8  2  0
  8  9  1  0
  9 10  2  0
 10 11  1  0
 11 12  2  0
 11 13  2  0
 11 14  1  0
 14 15  1  0
 15 16  1  0
 16 17  2  0
 16 18  1  0
 15 19  1  0
 19 20  1  0
 20 21  1  0
 21 22  1  0
 22 23  1  0
 23 24  1  0
 24 25  1  0
 24 26  2  0
 26 27  1  0
 27 28  1  0
 28 29  2  0
 22 30  1  0
 30 31  1  0
 10 32  1  0
 32 33  2  0
  6 34  1  0
 34 35  2  0
 35  3  1  0
 33  7  1  0
 31 19  1  0
 28 23  1  0
  1 36  1  0
  1 37  1  0
  1 38  1  0
  4 39  1  0
  5 40  1  0
  8 41  1  0
  9 42  1  0
 14 43  1  0
 15 44  1  1
 18 45  1  0
 19 46  1  0
 20 47  1  0
 20 48  1  0
 21 49  1  0
 21 50  1  0
 22 51  1  0
 25 52  1  0
 26 53  1  0
 27 54  1  0
 30 55  1  0
 30 56  1  0
 31 57  1  0
 31 58  1  0
 32 59  1  0
 33 60  1  0
 34 61  1  0
 35 62  1  0
M  END
$$$$
