
     RDKit          3D

 78 83  0  0  0  0  0  0  0  0999 V2000
   11.3969    0.5093    1.9378 C   0  0  0  0  0  0  0  0  0  0  0  0
   11.2211   -0.1271    0.8039 O   0  0  0  0  0  0  0  0  0  0  0  0
    9.9266   -0.3560    0.3973 C   0  0  0  0  0  0  0  0  0  0  0  0
    8.6292   -0.4260    0.9550 C   0  0  0  0  0  0  0  0  0  0  0  0
    7.5138   -0.6040    0.4048 C   0  0  0  0  0  0  0  0  0  0  0  0
    6.2673   -1.1324    0.6698 C   0  0  0  0  0  0  0  0  0  0  0  0
    5.8471   -2.2738    1.2273 C   0  0  0  0  0  0  0  0  0  0  0  0
    4.5361   -2.5768    1.5254 C   0  0  0  0  0  0  0  0  0  0  0  0
    3.4873   -1.6673    1.2167 C   0  0  0  0  0  0  0  0  0  0  0  0
    3.8824   -0.4665    0.6341 C   0  0  0  0  0  0  0  0  0  0  0  0
    5.2183   -0.2438    0.4018 C   0  0  0  0  0  0  0  0  0  0  0  0
    3.0866    0.6482    0.2363 N   0  0  0  0  0  0  0  0  0  0  0  0
    1.7206    0.5848   -0.0427 C   0  0  0  0  0  0  0  0  0  0  0  0
    1.3979    1.6397   -0.9694 C   0  0  0  0  0  0  0  0  0  0  0  0
    0.1127    1.6743   -1.3635 C   0  0  0  0  0  0  0  0  0  0  0  0
   -0.8331    0.8366   -1.0130 C   0  0  0  0  0  0  0  0  0  0  0  0
   -2.2171    1.1378   -1.4837 C   0  0  0  0  0  0  0  0  0  0  0  0
   -2.3171    0.4596   -2.8715 C   0  0  0  0  0  0  0  0  0  0  0  0
   -2.3621    2.6667   -1.6872 C   0  0  0  0  0  0  0  0  0  0  0  0
   -3.3141    0.7475   -0.6115 C   0  0  0  0  0  0  0  0  0  0  0  0
   -4.4466    0.5840   -1.2170 O   0  0  0  0  0  0  0  0  0  0  0  0
   -3.2814    0.5028    0.8347 N   0  0  0  0  0  0  0  0  0  0  0  0
   -4.6420    0.1103    1.3306 C   0  0  0  0  0  0  0  0  0  0  0  0
   -5.1327   -1.0150    0.9111 C   0  0  0  0  0  0  0  0  0  0  0  0
   -6.5555   -1.1309    0.7938 C   0  0  0  0  0  0  0  0  0  0  0  0
   -7.2386   -0.0084    1.1030 C   0  0  0  0  0  0  0  0  0  0  0  0
   -8.5319    0.1625    0.3602 N   0  0  0  0  0  0  0  0  0  0  0  0
   -9.3870    1.3072    0.4418 C   0  0  0  0  0  0  0  0  0  0  0  0
  -10.6659    0.6331    0.9753 C   0  0  0  0  0  0  0  0  0  0  0  0
  -11.0130   -0.3347    0.0614 O   0  0  0  0  0  0  0  0  0  0  0  0
  -10.1571   -1.3749   -0.0954 C   0  0  0  0  0  0  0  0  0  0  0  0
   -8.8602   -0.7843   -0.7028 C   0  0  0  0  0  0  0  0  0  0  0  0
   -6.7630    1.1683    1.5547 C   0  0  0  0  0  0  0  0  0  0  0  0
   -5.3421    1.2369    1.6650 C   0  0  0  0  0  0  0  0  0  0  0  0
   -0.5873   -0.1482   -0.1502 C   0  0  0  0  0  0  0  0  0  0  0  0
    0.7117   -0.2813    0.3295 C   0  0  0  0  0  0  0  0  0  0  0  0
    0.9020   -1.5188    1.0605 N   0  0  0  0  0  0  0  0  0  0  0  0
    2.1304   -2.1483    1.3287 C   0  0  0  0  0  0  0  0  0  0  0  0
    2.0784   -3.3675    1.7374 O   0  0  0  0  0  0  0  0  0  0  0  0
    7.7872   -0.7069   -1.1444 C   0  0  0  0  0  0  0  0  0  0  0  0
    8.8936   -0.6828   -1.6636 C   0  0  0  0  0  0  0  0  0  0  0  0
   10.0148   -0.5474   -1.0679 C   0  0  0  0  0  0  0  0  0  0  0  0
   11.4028   -0.7559   -1.4660 N   0  0  0  0  0  0  0  0  0  0  0  0
   12.2361    1.4328    1.1401 H   0  0  0  0  0  0  0  0  0  0  0  0
   10.6332    1.5727    1.6955 H   0  0  0  0  0  0  0  0  0  0  0  0
   12.0136    0.7621    2.6100 H   0  0  0  0  0  0  0  0  0  0  0  0
    8.5225   -0.6017    2.1529 H   0  0  0  0  0  0  0  0  0  0  0  0
    6.5557   -3.1004    1.4695 H   0  0  0  0  0  0  0  0  0  0  0  0
    4.2041   -3.5002    1.9769 H   0  0  0  0  0  0  0  0  0  0  0  0
    5.4657    0.7508    0.0185 H   0  0  0  0  0  0  0  0  0  0  0  0
    3.5808    1.5823    0.1748 H   0  0  0  0  0  0  0  0  0  0  0  0
    2.2020    2.3336   -1.2662 H   0  0  0  0  0  0  0  0  0  0  0  0
   -0.0375    2.4805   -2.1487 H   0  0  0  0  0  0  0  0  0  0  0  0
   -1.5934    1.0258   -3.5479 H   0  0  0  0  0  0  0  0  0  0  0  0
   -3.3060    0.3975   -3.2077 H   0  0  0  0  0  0  0  0  0  0  0  0
   -1.8069   -0.5449   -2.7036 H   0  0  0  0  0  0  0  0  0  0  0  0
   -1.9889    3.1549   -0.7711 H   0  0  0  0  0  0  0  0  0  0  0  0
   -3.4743    2.9361   -1.6827 H   0  0  0  0  0  0  0  0  0  0  0  0
   -1.9139    3.0090   -2.6056 H   0  0  0  0  0  0  0  0  0  0  0  0
   -2.4448    0.6120    1.3471 H   0  0  0  0  0  0  0  0  0  0  0  0
   -4.5510   -1.9699    0.7305 H   0  0  0  0  0  0  0  0  0  0  0  0
   -7.0728   -1.9982    0.5197 H   0  0  0  0  0  0  0  0  0  0  0  0
   -9.0468    2.1702    0.9310 H   0  0  0  0  0  0  0  0  0  0  0  0
   -9.6692    1.6182   -0.6081 H   0  0  0  0  0  0  0  0  0  0  0  0
  -10.2458    0.1200    1.9123 H   0  0  0  0  0  0  0  0  0  0  0  0
  -11.4533    1.3443    1.1762 H   0  0  0  0  0  0  0  0  0  0  0  0
   -9.8317   -1.7459    0.9296 H   0  0  0  0  0  0  0  0  0  0  0  0
  -10.5543   -2.1422   -0.7500 H   0  0  0  0  0  0  0  0  0  0  0  0
   -8.1049   -1.4880   -0.9753 H   0  0  0  0  0  0  0  0  0  0  0  0
   -9.2048   -0.3055   -1.6402 H   0  0  0  0  0  0  0  0  0  0  0  0
   -7.3405    2.0400    1.8575 H   0  0  0  0  0  0  0  0  0  0  0  0
   -4.8364    2.0812    2.1154 H   0  0  0  0  0  0  0  0  0  0  0  0
   -1.3782   -0.8444    0.2236 H   0  0  0  0  0  0  0  0  0  0  0  0
    0.0466   -2.0061    1.3952 H   0  0  0  0  0  0  0  0  0  0  0  0
    6.9365   -0.6582   -1.7968 H   0  0  0  0  0  0  0  0  0  0  0  0
    9.0601   -0.7488   -2.8039 H   0  0  0  0  0  0  0  0  0  0  0  0
   11.9807   -1.6505   -1.2529 H   0  0  0  0  0  0  0  0  0  0  0  0
   11.9012   -0.0496   -2.0410 H   0  0  0  0  0  0  0  0  0  0  0  0
  1  2  1  0
  2  3  1  0
  3  4  2  0
  4  5  1  0
  5  6  1  0
  6  7  2  0
  7  8  1  0
  8  9  2  0
  9 10  1  0
 10 11  2  0
 10 12  1  0
 12 13  1  0
 13 14  2  0
 14 15  1  0
 15 16  2  0
 16 17  1  0
 17 18  1  0
 17 19  1  0
 17 20  1  0
 20 21  2  0
 20 22  1  0
 22 23  1  0
 23 24  2  0
 24 25  1  0
 25 26  2  0
 26 27  1  0
 27 28  1  0
 28 29  1  0
 29 30  1  0
 30 31  1  0
 31 32  1  0
 26 33  1  0
 33 34  2  0
 16 35  1  0
 35 36  2  0
 36 37  1  0
 37 38  1  0
 38 39  2  0
  5 40  2  0
 40 41  1  0
 41 42  2  0
 42 43  1  0
 42  3  1  0
 11  6  1  0
 36 13  1  0
 38  9  1  0
 34 23  1  0
 32 27  1  0
  1 44  1  0
  1 45  1  0
  1 46  1  0
  4 47  1  0
  7 48  1  0
  8 49  1  0
 11 50  1  0
 12 51  1  0
 14 52  1  0
 15 53  1  0
 18 54  1  0
 18 55  1  0
 18 56  1  0
 19 57  1  0
 19 58  1  0
 19 59  1  0
 22 60  1  0
 24 61  1  0
 25 62  1  0
 28 63  1  0
 28 64  1  0
 29 65  1  0
 29 66  1  0
 31 67  1  0
 31 68  1  0
 32 69  1  0
 32 70  1  0
 33 71  1  0
 34 72  1  0
 35 73  1  0
 37 74  1  0
 40 75  1  0
 41 76  1  0
 43 77  1  0
 43 78  1  0
M  END
$$$$
