
     RDKit          3D

 46 50  0  0  0  0  0  0  0  0999 V2000
   -4.1608   -2.7269   -2.3095 N   0  0  0  0  0  0  0  0  0  0  0  0
   -3.5051   -2.7143   -0.7888 C   0  0  0  0  0  0  0  0  0  0  0  0
   -3.0508   -2.6859    0.2576 C   0  0  0  0  0  0  0  0  0  0  0  0
   -3.1696   -3.7172    1.3144 C   0  0  0  0  0  0  0  0  0  0  0  0
   -2.2674   -3.4196    2.2369 N   0  0  0  0  0  0  0  0  0  0  0  0
   -1.6162   -2.3719    1.9195 C   0  0  0  0  0  0  0  0  0  0  0  0
   -0.5667   -1.6886    2.4828 C   0  0  0  0  0  0  0  0  0  0  0  0
    0.0445   -0.5901    2.0532 C   0  0  0  0  0  0  0  0  0  0  0  0
   -0.3679   -0.0315    0.8080 C   0  0  0  0  0  0  0  0  0  0  0  0
    0.3107    1.0467    0.1517 C   0  0  0  0  0  0  0  0  0  0  0  0
   -0.1623    2.0197   -0.8642 C   0  0  0  0  0  0  0  0  0  0  0  0
   -1.6379    2.3090   -0.9634 C   0  0  0  0  0  0  0  0  0  0  0  0
   -2.1977    2.4888   -2.2018 C   0  0  0  0  0  0  0  0  0  0  0  0
   -3.6615    2.7419   -2.2410 C   0  0  0  0  0  0  0  0  0  0  0  0
   -4.2179    2.7895   -1.0952 C   0  0  0  0  0  0  0  0  0  0  0  0
   -5.6877    3.1506   -1.1296 F   0  0  0  0  0  0  0  0  0  0  0  0
   -3.8156    2.6189    0.1528 C   0  0  0  0  0  0  0  0  0  0  0  0
   -2.3370    2.3442    0.2203 C   0  0  0  0  0  0  0  0  0  0  0  0
    0.7688    2.4346   -1.2978 N   0  0  0  0  0  0  0  0  0  0  0  0
    1.9091    2.1835   -1.0478 C   0  0  0  0  0  0  0  0  0  0  0  0
    1.6934    1.1859    0.0078 N   0  0  0  0  0  0  0  0  0  0  0  0
    2.7398    0.4776    0.6731 C   0  0  0  0  0  0  0  0  0  0  0  0
    3.0310   -0.8009   -0.0750 C   0  0  0  0  0  0  0  0  0  0  0  0
    3.9930   -1.7515    0.5119 C   0  0  0  0  0  0  0  0  0  0  0  0
    5.1386   -1.0472   -0.0938 C   0  0  0  0  0  0  0  0  0  0  0  0
    4.1530   -0.4870   -1.1354 C   0  0  0  0  0  0  0  0  0  0  0  0
   -1.4529   -0.7636    0.2309 C   0  0  0  0  0  0  0  0  0  0  0  0
   -2.0165   -1.8410    0.7560 N   0  0  0  0  0  0  0  0  0  0  0  0
   -3.9082   -4.4963    1.2592 H   0  0  0  0  0  0  0  0  0  0  0  0
   -0.0756   -2.2682    3.3426 H   0  0  0  0  0  0  0  0  0  0  0  0
    0.7893   -0.1083    2.6176 H   0  0  0  0  0  0  0  0  0  0  0  0
   -1.6642    2.4434   -3.0901 H   0  0  0  0  0  0  0  0  0  0  0  0
   -4.0141    2.9108   -3.2208 H   0  0  0  0  0  0  0  0  0  0  0  0
   -4.3282    2.6878    1.0617 H   0  0  0  0  0  0  0  0  0  0  0  0
   -1.9211    2.1995    1.1445 H   0  0  0  0  0  0  0  0  0  0  0  0
    2.9481    2.3599   -1.2557 H   0  0  0  0  0  0  0  0  0  0  0  0
    3.7064    1.1294    0.6114 H   0  0  0  0  0  0  0  0  0  0  0  0
    2.6455    0.3923    1.7575 H   0  0  0  0  0  0  0  0  0  0  0  0
    2.1963   -1.1826   -0.6799 H   0  0  0  0  0  0  0  0  0  0  0  0
    3.9457   -1.8174    1.6419 H   0  0  0  0  0  0  0  0  0  0  0  0
    3.9377   -2.8264    0.1325 H   0  0  0  0  0  0  0  0  0  0  0  0
    5.9351   -1.6446   -0.5382 H   0  0  0  0  0  0  0  0  0  0  0  0
    5.5070   -0.2187    0.5599 H   0  0  0  0  0  0  0  0  0  0  0  0
    4.2122    0.6441   -1.1281 H   0  0  0  0  0  0  0  0  0  0  0  0
    4.0559   -1.0083   -2.0481 H   0  0  0  0  0  0  0  0  0  0  0  0
   -1.8581   -0.3500   -0.7014 H   0  0  0  0  0  0  0  0  0  0  0  0
  1  2  3  0
  2  3  1  0
  3  4  2  0
  4  5  1  0
  5  6  2  0
  6  7  1  0
  7  8  2  0
  8  9  1  0
  9 10  1  0
 10 11  2  0
 11 12  1  0
 12 13  2  0
 13 14  1  0
 14 15  2  0
 15 16  1  0
 15 17  1  0
 17 18  2  0
 11 19  1  0
 19 20  2  0
 20 21  1  0
 21 22  1  0
 22 23  1  0
 23 24  1  0
 24 25  1  0
 25 26  1  0
  9 27  2  0
 27 28  1  0
 28  3  1  0
 28  6  1  0
 21 10  1  0
 26 23  1  0
 18 12  1  0
  4 29  1  0
  7 30  1  0
  8 31  1  0
 13 32  1  0
 14 33  1  0
 17 34  1  0
 18 35  1  0
 20 36  1  0
 22 37  1  0
 22 38  1  0
 23 39  1  0
 24 40  1  0
 24 41  1  0
 25 42  1  0
 25 43  1  0
 26 44  1  0
 26 45  1  0
 27 46  1  0
M  END
$$$$
