
     RDKit          3D

 50 50  0  0  0  0  0  0  0  0999 V2000
    5.4837    1.7734    2.1765 C   0  0  0  0  0  0  0  0  0  0  0  0
    4.7907    0.5301    1.5860 C   0  0  0  0  0  0  0  0  0  0  0  0
    5.7311   -0.0314    0.5904 C   0  0  0  0  0  0  0  0  0  0  0  0
    5.3379   -1.2593   -0.1392 C   0  0  0  0  0  0  0  0  0  0  0  0
    4.2283   -1.2906   -0.9073 O   0  0  0  0  0  0  0  0  0  0  0  0
    2.9084   -1.1751   -0.8239 C   0  0  0  0  0  0  0  0  0  0  0  0
    2.4140   -1.3161   -2.1347 C   0  0  0  0  0  0  0  0  0  0  0  0
    3.1264   -1.5385   -3.3676 N   0  0  0  0  0  0  0  0  0  0  0  0
    1.0434   -1.2507   -2.4294 C   0  0  0  0  0  0  0  0  0  0  0  0
    0.1708   -1.0406   -1.3842 C   0  0  0  0  0  0  0  0  0  0  0  0
    0.5886   -0.8950   -0.0821 C   0  0  0  0  0  0  0  0  0  0  0  0
    1.9448   -0.9698    0.1371 C   0  0  0  0  0  0  0  0  0  0  0  0
   -0.2509   -0.6726    1.0862 C   0  0  0  0  0  0  0  0  0  0  0  0
    0.1701   -0.5417    2.2654 O   0  0  0  0  0  0  0  0  0  0  0  0
   -1.6192   -0.6154    0.7708 O   0  0  0  0  0  0  0  0  0  0  0  0
   -2.6209   -0.4073    1.7550 C   0  0  0  0  0  0  0  0  0  0  0  0
   -3.9805   -0.3922    1.1530 C   0  0  0  0  0  0  0  0  0  0  0  0
   -4.2855    0.5632    0.1837 N   0  0  0  0  0  0  0  0  0  0  0  0
   -5.6204    0.5191   -0.3555 C   0  0  0  0  0  0  0  0  0  0  0  0
   -5.8341   -0.7291   -1.1876 C   0  0  0  0  0  0  0  0  0  0  0  0
   -3.7762    1.8899    0.3395 C   0  0  0  0  0  0  0  0  0  0  0  0
   -4.4002    2.5980    1.4957 C   0  0  0  0  0  0  0  0  0  0  0  0
    5.3133    2.6138    1.4921 H   0  0  0  0  0  0  0  0  0  0  0  0
    6.5901    1.6024    2.1669 H   0  0  0  0  0  0  0  0  0  0  0  0
    5.1680    1.9811    3.2013 H   0  0  0  0  0  0  0  0  0  0  0  0
    3.9101    0.9311    1.0303 H   0  0  0  0  0  0  0  0  0  0  0  0
    4.5151   -0.1160    2.4233 H   0  0  0  0  0  0  0  0  0  0  0  0
    6.0502    0.7992   -0.0795 H   0  0  0  0  0  0  0  0  0  0  0  0
    6.6773   -0.2909    1.1651 H   0  0  0  0  0  0  0  0  0  0  0  0
    6.2319   -1.5977   -0.7699 H   0  0  0  0  0  0  0  0  0  0  0  0
    5.2851   -2.1278    0.6070 H   0  0  0  0  0  0  0  0  0  0  0  0
    3.2548   -2.5020   -3.6863 H   0  0  0  0  0  0  0  0  0  0  0  0
    3.5861   -0.9541   -4.0862 H   0  0  0  0  0  0  0  0  0  0  0  0
    0.5474   -1.3409   -3.3660 H   0  0  0  0  0  0  0  0  0  0  0  0
   -0.9089   -0.9734   -1.4990 H   0  0  0  0  0  0  0  0  0  0  0  0
    2.3848   -0.8834    1.1146 H   0  0  0  0  0  0  0  0  0  0  0  0
   -2.3727    0.4691    2.3698 H   0  0  0  0  0  0  0  0  0  0  0  0
   -2.5467   -1.2812    2.4519 H   0  0  0  0  0  0  0  0  0  0  0  0
   -4.7379   -0.3501    1.9626 H   0  0  0  0  0  0  0  0  0  0  0  0
   -4.1312   -1.4143    0.6926 H   0  0  0  0  0  0  0  0  0  0  0  0
   -6.4047    0.6644    0.4179 H   0  0  0  0  0  0  0  0  0  0  0  0
   -5.7162    1.3836   -1.0651 H   0  0  0  0  0  0  0  0  0  0  0  0
   -6.5659   -0.5477   -2.0300 H   0  0  0  0  0  0  0  0  0  0  0  0
   -4.8544   -1.0655   -1.5629 H   0  0  0  0  0  0  0  0  0  0  0  0
   -6.3205   -1.4675   -0.5025 H   0  0  0  0  0  0  0  0  0  0  0  0
   -2.6914    1.8740    0.3033 H   0  0  0  0  0  0  0  0  0  0  0  0
   -4.0940    2.4361   -0.5958 H   0  0  0  0  0  0  0  0  0  0  0  0
   -4.6019    3.6611    1.2195 H   0  0  0  0  0  0  0  0  0  0  0  0
   -3.7724    2.6505    2.4092 H   0  0  0  0  0  0  0  0  0  0  0  0
   -5.3458    2.0980    1.8131 H   0  0  0  0  0  0  0  0  0  0  0  0
  1  2  1  0
  2  3  1  0
  3  4  1  0
  4  5  1  0
  5  6  1  0
  6  7  2  0
  7  8  1  0
  7  9  1  0
  9 10  2  0
 10 11  1  0
 11 12  2  0
 11 13  1  0
 13 14  2  0
 13 15  1  0
 15 16  1  0
 16 17  1  0
 17 18  1  0
 18 19  1  0
 19 20  1  0
 18 21  1  0
 21 22  1  0
 12  6  1  0
  1 23  1  0
  1 24  1  0
  1 25  1  0
  2 26  1  0
  2 27  1  0
  3 28  1  0
  3 29  1  0
  4 30  1  0
  4 31  1  0
  8 32  1  0
  8 33  1  0
  9 34  1  0
 10 35  1  0
 12 36  1  0
 16 37  1  0
 16 38  1  0
 17 39  1  0
 17 40  1  0
 19 41  1  0
 19 42  1  0
 20 43  1  0
 20 44  1  0
 20 45  1  0
 21 46  1  0
 21 47  1  0
 22 48  1  0
 22 49  1  0
 22 50  1  0
M  END
$$$$
